REMARK  Name = 
REMARK  2 active torsions:
REMARK  status: ('A' for Active; 'I' for Inactive)
REMARK    1  A    between atoms: C_1  and  C_7
REMARK    2  A    between atoms: C_3  and  C_10
REMARK                            x       y       z     vdW  Elec       q    Type
REMARK                         _______ _______ _______ _____ _____    ______ ____
ROOT
ATOM      1  C   UNL     1       1.817  -0.217   0.000  0.00  0.00    +0.000 A 
ATOM      2  C   UNL     1       0.625   0.463   0.000  0.00  0.00    +0.000 A 
ATOM      3  C   UNL     1      -0.583  -0.237   0.000  0.00  0.00    +0.000 A 
ATOM      4  C   UNL     1       1.829  -1.604   0.000  0.00  0.00    +0.000 A 
ATOM      5  N   UNL     1       0.629  -2.304   0.000  0.00  0.00    +0.000 NA
ATOM      6  C   UNL     1      -0.588  -1.617   0.000  0.00  0.00    +0.000 A 
ATOM      7  O   UNL     1       3.017  -2.279   0.000  0.00  0.00    +0.000 OA
ATOM      8  C   UNL     1      -1.812  -2.304   0.000  0.00  0.00    +0.000 C 
ENDROOT
BRANCH   3   9
ATOM      9  C   UNL     1      -1.783   0.471   0.000  0.00  0.00    +0.000 A 
ATOM     10  N   UNL     1      -4.171   1.871   0.000  0.00  0.00    +0.000 NA
ATOM     11  C   UNL     1      -4.162   0.483   0.000  0.00  0.00    +0.000 A 
ATOM     12  C   UNL     1      -2.971   2.571   0.000  0.00  0.00    +0.000 A 
ATOM     13  C   UNL     1      -1.758   1.871   0.000  0.00  0.00    +0.000 A 
ATOM     14  C   UNL     1      -2.971  -0.200   0.000  0.00  0.00    +0.000 A 
ENDBRANCH   3   9
BRANCH   1  15
ATOM     15  C   UNL     1       3.042   0.471   0.000  0.00  0.00    +0.000 C 
ATOM     16  N   UNL     1       4.255   1.152   0.000  0.00  0.00    +0.000 NA
ENDBRANCH   1  15
TORSDOF 2
