REMARK  Name = 
REMARK  18 active torsions:
REMARK  status: ('A' for Active; 'I' for Inactive)
REMARK    1  A    between atoms: C_1  and  O_7
REMARK    2  A    between atoms: C_2  and  O_9
REMARK    3  A    between atoms: C_3  and  O_8
REMARK    4  A    between atoms: C_4  and  O_10
REMARK    5  A    between atoms: C_5  and  O_11
REMARK    6  A    between atoms: C_6  and  O_12
REMARK    7  A    between atoms: O_7  and  C_13
REMARK    8  A    between atoms: O_8  and  C_14
REMARK    9  A    between atoms: O_9  and  C_15
REMARK   10  A    between atoms: O_10  and  C_16
REMARK   11  A    between atoms: O_11  and  C_17
REMARK   12  A    between atoms: O_12  and  C_18
REMARK   13  A    between atoms: C_13  and  C_19
REMARK   14  A    between atoms: C_14  and  C_20
REMARK   15  A    between atoms: C_15  and  C_21
REMARK   16  A    between atoms: C_16  and  C_22
REMARK   17  A    between atoms: C_17  and  C_23
REMARK   18  A    between atoms: C_18  and  C_24
REMARK                            x       y       z     vdW  Elec       q    Type
REMARK                         _______ _______ _______ _____ _____    ______ ____
ROOT
ATOM      1  C   UNL     1       0.529  -0.317   0.000  0.00  0.00    +0.000 C 
ATOM      2  C   UNL     1      -0.046  -0.654   0.000  0.00  0.00    +0.000 C 
ATOM      3  C   UNL     1       0.529   0.321   0.000  0.00  0.00    +0.000 C 
ATOM      4  C   UNL     1      -0.596  -0.338   0.000  0.00  0.00    +0.000 C 
ATOM      5  C   UNL     1      -0.046   0.646   0.000  0.00  0.00    +0.000 C 
ATOM      6  C   UNL     1      -0.596   0.321   0.000  0.00  0.00    +0.000 C 
ENDROOT
BRANCH   6   7
ATOM      7  O   UNL     1      -1.158   0.662   0.000  0.00  0.00    +0.000 OA
BRANCH   7   8
ATOM      8  C   UNL     1      -1.725   0.346   0.000  0.00  0.00    +0.000 C 
ATOM      9  O   UNL     1      -1.733  -0.304   0.000  0.00  0.00    +0.000 OA
BRANCH   8  10
ATOM     10  C   UNL     1      -2.275   0.696   0.000  0.00  0.00    +0.000 A 
ATOM     11  N   UNL     1      -2.821   1.696   0.000  0.00  0.00    +0.000 NA
ATOM     12  C   UNL     1      -2.263   1.358   0.000  0.00  0.00    +0.000 A 
ATOM     13  C   UNL     1      -2.850   0.383   0.000  0.00  0.00    +0.000 A 
ATOM     14  C   UNL     1      -3.408   1.383   0.000  0.00  0.00    +0.000 A 
ATOM     15  C   UNL     1      -3.421   0.721   0.000  0.00  0.00    +0.000 A 
ENDBRANCH   8  10
ENDBRANCH   7   8
ENDBRANCH   6   7
BRANCH   5  16
ATOM     16  O   UNL     1      -0.046   1.300   0.000  0.00  0.00    +0.000 OA
BRANCH  16  17
ATOM     17  C   UNL     1      -0.596   1.621   0.000  0.00  0.00    +0.000 C 
ATOM     18  O   UNL     1      -1.175   1.300   0.000  0.00  0.00    +0.000 OA
BRANCH  17  19
ATOM     19  C   UNL     1      -0.588   2.283   0.000  0.00  0.00    +0.000 A 
ATOM     20  N   UNL     1      -0.008   3.258   0.000  0.00  0.00    +0.000 NA
ATOM     21  C   UNL     1      -0.013   2.608   0.000  0.00  0.00    +0.000 A 
ATOM     22  C   UNL     1      -1.146   2.608   0.000  0.00  0.00    +0.000 A 
ATOM     23  C   UNL     1      -0.571   3.596   0.000  0.00  0.00    +0.000 A 
ATOM     24  C   UNL     1      -1.146   3.271   0.000  0.00  0.00    +0.000 A 
ENDBRANCH  17  19
ENDBRANCH  16  17
ENDBRANCH   5  16
BRANCH   4  25
ATOM     25  O   UNL     1      -1.175  -0.654   0.000  0.00  0.00    +0.000 OA
BRANCH  25  26
ATOM     26  C   UNL     1      -1.175  -1.300   0.000  0.00  0.00    +0.000 C 
ATOM     27  O   UNL     1      -0.613  -1.637   0.000  0.00  0.00    +0.000 OA
BRANCH  26  28
ATOM     28  C   UNL     1      -1.746  -1.600   0.000  0.00  0.00    +0.000 A 
ATOM     29  N   UNL     1      -2.333  -2.567   0.000  0.00  0.00    +0.000 NA
ATOM     30  C   UNL     1      -1.758  -2.250   0.000  0.00  0.00    +0.000 A 
ATOM     31  C   UNL     1      -2.308  -1.275   0.000  0.00  0.00    +0.000 A 
ATOM     32  C   UNL     1      -2.896  -2.237   0.000  0.00  0.00    +0.000 A 
ATOM     33  C   UNL     1      -2.875  -1.579   0.000  0.00  0.00    +0.000 A 
ENDBRANCH  26  28
ENDBRANCH  25  26
ENDBRANCH   4  25
BRANCH   2  34
ATOM     34  O   UNL     1      -0.046  -1.300   0.000  0.00  0.00    +0.000 OA
BRANCH  34  35
ATOM     35  C   UNL     1       0.504  -1.617   0.000  0.00  0.00    +0.000 C 
ATOM     36  O   UNL     1       1.079  -1.300   0.000  0.00  0.00    +0.000 OA
BRANCH  35  37
ATOM     37  C   UNL     1       0.492  -2.275   0.000  0.00  0.00    +0.000 A 
ATOM     38  N   UNL     1       1.038  -3.263   0.000  0.00  0.00    +0.000 NA
ATOM     39  C   UNL     1       1.038  -2.604   0.000  0.00  0.00    +0.000 A 
ATOM     40  C   UNL     1      -0.071  -2.592   0.000  0.00  0.00    +0.000 A 
ATOM     41  C   UNL     1       0.479  -3.592   0.000  0.00  0.00    +0.000 A 
ATOM     42  C   UNL     1      -0.083  -3.254   0.000  0.00  0.00    +0.000 A 
ENDBRANCH  35  37
ENDBRANCH  34  35
ENDBRANCH   2  34
BRANCH   3  43
ATOM     43  O   UNL     1       1.104   0.625   0.000  0.00  0.00    +0.000 OA
BRANCH  43  44
ATOM     44  C   UNL     1       1.125   1.271   0.000  0.00  0.00    +0.000 C 
ATOM     45  O   UNL     1       0.567   1.621   0.000  0.00  0.00    +0.000 OA
BRANCH  44  46
ATOM     46  C   UNL     1       1.700   1.562   0.000  0.00  0.00    +0.000 A 
ATOM     47  N   UNL     1       2.829   1.533   0.000  0.00  0.00    +0.000 NA
ATOM     48  C   UNL     1       2.254   1.233   0.000  0.00  0.00    +0.000 A 
ATOM     49  C   UNL     1       1.725   2.208   0.000  0.00  0.00    +0.000 A 
ATOM     50  C   UNL     1       2.854   2.183   0.000  0.00  0.00    +0.000 A 
ATOM     51  C   UNL     1       2.300   2.521   0.000  0.00  0.00    +0.000 A 
ENDBRANCH  44  46
ENDBRANCH  43  44
ENDBRANCH   3  43
BRANCH   1  52
ATOM     52  O   UNL     1       1.104  -0.637   0.000  0.00  0.00    +0.000 OA
BRANCH  52  53
ATOM     53  C   UNL     1       1.667  -0.304   0.000  0.00  0.00    +0.000 C 
ATOM     54  O   UNL     1       1.667   0.346   0.000  0.00  0.00    +0.000 OA
BRANCH  53  55
ATOM     55  C   UNL     1       2.217  -0.637   0.000  0.00  0.00    +0.000 A 
ATOM     56  N   UNL     1       3.367  -0.637   0.000  0.00  0.00    +0.000 NA
ATOM     57  C   UNL     1       2.792  -0.317   0.000  0.00  0.00    +0.000 A 
ATOM     58  C   UNL     1       2.229  -1.300   0.000  0.00  0.00    +0.000 A 
ATOM     59  C   UNL     1       3.379  -1.300   0.000  0.00  0.00    +0.000 A 
ATOM     60  C   UNL     1       2.804  -1.629   0.000  0.00  0.00    +0.000 A 
ENDBRANCH  53  55
ENDBRANCH  52  53
ENDBRANCH   1  52
TORSDOF 18
