MODEL 1
REMARK VINA RESULT:      -8.8      0.000      0.000
REMARK  Name = 
REMARK  4 active torsions:
REMARK  status: ('A' for Active; 'I' for Inactive)
REMARK    1  A    between atoms: S_4  and  C_5
REMARK    2  A    between atoms: C_6  and  C_16
REMARK    3  A    between atoms: C_16  and  C_19
REMARK    4  A    between atoms: C_19  and  C_21
REMARK                            x       y       z     vdW  Elec       q    Type
REMARK                         _______ _______ _______ _____ _____    ______ ____
ROOT
ATOM      1  S   UNL     1      98.397 142.078 140.962  0.00  0.00    +0.000 S 
ATOM      2  N   UNL     1      97.900 140.966 140.827  0.00  0.00    +0.000 NA
ATOM      3  C   UNL     1      99.201 142.478 140.171  0.00  0.00    +0.000 A 
ATOM      4  C   UNL     1     100.481 143.967 139.525  0.00  0.00    +0.000 A 
ATOM      5  C   UNL     1      98.228 140.278 139.889  0.00  0.00    +0.000 C 
ATOM      6  C   UNL     1      99.528 141.791 139.233  0.00  0.00    +0.000 A 
ATOM      7  N   UNL     1      99.052 140.702 139.087  0.00  0.00    +0.000 NA
ATOM      8  C   UNL     1      99.680 143.570 140.316  0.00  0.00    +0.000 A 
ATOM      9  C   UNL     1     100.808 143.280 138.588  0.00  0.00    +0.000 A 
ATOM     10  C   UNL     1     100.335 142.194 138.440  0.00  0.00    +0.000 A 
ATOM     11  O   UNL     1      98.749 143.227 141.321  0.00  0.00    +0.000 OA
ATOM     12  O   UNL     1      97.625 141.906 141.877  0.00  0.00    +0.000 OA
ATOM     13 CL   UNL     1     101.810 143.878 137.671  0.00  0.00    +0.000 Cl
ENDROOT
BRANCH   4  14
ATOM     14  S   UNL     1     100.957 145.055 139.671  0.00  0.00    +0.000 S 
ATOM     15  O   UNL     1     100.102 145.489 139.020  0.00  0.00    +0.000 OA
ATOM     16  O   UNL     1     101.424 146.233 139.797  0.00  0.00    +0.000 OA
ATOM     17  N   UNL     1     101.849 144.608 140.351  0.00  0.00    +0.000 NA
ENDBRANCH   4  14
BRANCH   5  18
ATOM     18  C   UNL     1      97.728 139.162 139.754  0.00  0.00    +0.000 C 
ATOM     19  C   UNL     1      97.936 138.286 140.571  0.00  0.00    +0.000 C 
BRANCH  18  20
ATOM     20  C   UNL     1      97.010 138.933 138.779  0.00  0.00    +0.000 C 
ATOM     21  C   UNL     1      96.879 137.794 138.394  0.00  0.00    +0.000 C 
BRANCH  20  22
ATOM     22  C   UNL     1      96.422 139.839 138.188  0.00  0.00    +0.000 C 
ATOM     23  C   UNL     1      96.267 139.785 136.852  0.00  0.00    +0.000 C 
ENDBRANCH  20  22
ENDBRANCH  18  20
ENDBRANCH   5  18
TORSDOF 4
ENDMDL
MODEL 2
REMARK VINA RESULT:      -8.4      2.133      2.556
REMARK  Name = 
REMARK  4 active torsions:
REMARK  status: ('A' for Active; 'I' for Inactive)
REMARK    1  A    between atoms: S_4  and  C_5
REMARK    2  A    between atoms: C_6  and  C_16
REMARK    3  A    between atoms: C_16  and  C_19
REMARK    4  A    between atoms: C_19  and  C_21
REMARK                            x       y       z     vdW  Elec       q    Type
REMARK                         _______ _______ _______ _____ _____    ______ ____
ROOT
ATOM      1  S   UNL     1     100.208 142.126 138.690  0.00  0.00    +0.000 S 
ATOM      2  N   UNL     1      99.374 141.246 138.872  0.00  0.00    +0.000 NA
ATOM      3  C   UNL     1     100.332 143.010 139.487  0.00  0.00    +0.000 A 
ATOM      4  C   UNL     1     101.275 144.747 140.093  0.00  0.00    +0.000 A 
ATOM      5  C   UNL     1      98.681 141.278 139.860  0.00  0.00    +0.000 C 
ATOM      6  C   UNL     1      99.639 143.042 140.476  0.00  0.00    +0.000 A 
ATOM      7  N   UNL     1      98.820 142.190 140.668  0.00  0.00    +0.000 NA
ATOM      8  C   UNL     1     101.153 143.867 139.297  0.00  0.00    +0.000 A 
ATOM      9  C   UNL     1     100.582 144.779 141.082  0.00  0.00    +0.000 A 
ATOM     10  C   UNL     1      99.765 143.930 141.275  0.00  0.00    +0.000 A 
ATOM     11  O   UNL     1     101.114 142.888 138.279  0.00  0.00    +0.000 OA
ATOM     12  O   UNL     1     100.274 141.359 137.758  0.00  0.00    +0.000 OA
ATOM     13 CL   UNL     1     100.824 145.920 141.999  0.00  0.00    +0.000 Cl
ENDROOT
BRANCH   4  14
ATOM     14  S   UNL     1     102.093 145.599 139.901  0.00  0.00    +0.000 S 
ATOM     15  O   UNL     1     102.868 144.947 140.465  0.00  0.00    +0.000 OA
ATOM     16  O   UNL     1     102.999 146.476 139.724  0.00  0.00    +0.000 OA
ATOM     17  N   UNL     1     101.289 146.282 139.313  0.00  0.00    +0.000 NA
ENDBRANCH   4  14
BRANCH   5  18
ATOM     18  C   UNL     1      97.845 140.394 140.042  0.00  0.00    +0.000 C 
ATOM     19  C   UNL     1      97.963 139.608 140.961  0.00  0.00    +0.000 C 
BRANCH  18  20
ATOM     20  C   UNL     1      96.878 140.307 139.281  0.00  0.00    +0.000 C 
ATOM     21  C   UNL     1      95.883 140.954 139.512  0.00  0.00    +0.000 C 
BRANCH  20  22
ATOM     22  C   UNL     1      96.905 139.577 138.289  0.00  0.00    +0.000 C 
ATOM     23  C   UNL     1      96.452 140.029 137.105  0.00  0.00    +0.000 C 
ENDBRANCH  20  22
ENDBRANCH  18  20
ENDBRANCH   5  18
TORSDOF 4
ENDMDL
MODEL 3
REMARK VINA RESULT:      -8.4     54.103     55.275
REMARK  Name = 
REMARK  4 active torsions:
REMARK  status: ('A' for Active; 'I' for Inactive)
REMARK    1  A    between atoms: S_4  and  C_5
REMARK    2  A    between atoms: C_6  and  C_16
REMARK    3  A    between atoms: C_16  and  C_19
REMARK    4  A    between atoms: C_19  and  C_21
REMARK                            x       y       z     vdW  Elec       q    Type
REMARK                         _______ _______ _______ _____ _____    ______ ____
ROOT
ATOM      1  S   UNL     1     130.419 123.578 179.096  0.00  0.00    +0.000 S 
ATOM      2  N   UNL     1     131.208 123.620 178.158  0.00  0.00    +0.000 NA
ATOM      3  C   UNL     1     130.597 122.811 179.997  0.00  0.00    +0.000 A 
ATOM      4  C   UNL     1     129.996 122.016 181.808  0.00  0.00    +0.000 A 
ATOM      5  C   UNL     1     132.164 122.881 178.151  0.00  0.00    +0.000 C 
ATOM      6  C   UNL     1     131.553 122.073 179.990  0.00  0.00    +0.000 A 
ATOM      7  N   UNL     1     132.332 122.101 179.082  0.00  0.00    +0.000 NA
ATOM      8  C   UNL     1     129.817 122.781 180.910  0.00  0.00    +0.000 A 
ATOM      9  C   UNL     1     130.952 121.278 181.801  0.00  0.00    +0.000 A 
ATOM     10  C   UNL     1     131.730 121.304 180.896  0.00  0.00    +0.000 A 
ATOM     11  O   UNL     1     129.486 123.731 179.918  0.00  0.00    +0.000 OA
ATOM     12  O   UNL     1     130.028 124.422 178.323  0.00  0.00    +0.000 OA
ATOM     13 CL   UNL     1     131.071 120.370 182.969  0.00  0.00    +0.000 Cl
ENDROOT
BRANCH   4  14
ATOM     14  S   UNL     1     129.217 121.987 182.716  0.00  0.00    +0.000 S 
ATOM     15  O   UNL     1     129.810 122.847 183.218  0.00  0.00    +0.000 OA
ATOM     16  O   UNL     1     128.416 121.997 183.706  0.00  0.00    +0.000 OA
ATOM     17  N   UNL     1     128.596 121.091 182.196  0.00  0.00    +0.000 NA
ENDBRANCH   4  14
BRANCH   5  18
ATOM     18  C   UNL     1     132.954 122.924 177.209  0.00  0.00    +0.000 C 
ATOM     19  C   UNL     1     132.862 122.138 176.286  0.00  0.00    +0.000 C 
BRANCH  18  20
ATOM     20  C   UNL     1     133.848 123.773 177.205  0.00  0.00    +0.000 C 
ATOM     21  C   UNL     1     134.753 123.684 178.002  0.00  0.00    +0.000 C 
BRANCH  20  22
ATOM     22  C   UNL     1     133.839 124.711 176.407  0.00  0.00    +0.000 C 
ATOM     23  C   UNL     1     134.774 125.675 176.488  0.00  0.00    +0.000 C 
ENDBRANCH  20  22
ENDBRANCH  18  20
ENDBRANCH   5  18
TORSDOF 4
ENDMDL
MODEL 4
REMARK VINA RESULT:      -8.1     53.093     54.271
REMARK  Name = 
REMARK  4 active torsions:
REMARK  status: ('A' for Active; 'I' for Inactive)
REMARK    1  A    between atoms: S_4  and  C_5
REMARK    2  A    between atoms: C_6  and  C_16
REMARK    3  A    between atoms: C_16  and  C_19
REMARK    4  A    between atoms: C_19  and  C_21
REMARK                            x       y       z     vdW  Elec       q    Type
REMARK                         _______ _______ _______ _____ _____    ______ ____
ROOT
ATOM      1  S   UNL     1     131.376 121.827 177.159  0.00  0.00    +0.000 S 
ATOM      2  N   UNL     1     132.095 122.541 176.468  0.00  0.00    +0.000 NA
ATOM      3  C   UNL     1     130.954 122.229 178.203  0.00  0.00    +0.000 A 
ATOM      4  C   UNL     1     129.831 121.923 179.911  0.00  0.00    +0.000 A 
ATOM      5  C   UNL     1     132.373 123.653 176.851  0.00  0.00    +0.000 C 
ATOM      6  C   UNL     1     131.232 123.341 178.586  0.00  0.00    +0.000 A 
ATOM      7  N   UNL     1     131.932 124.051 177.924  0.00  0.00    +0.000 NA
ATOM      8  C   UNL     1     130.251 121.520 178.870  0.00  0.00    +0.000 A 
ATOM      9  C   UNL     1     130.108 123.034 180.294  0.00  0.00    +0.000 A 
ATOM     10  C   UNL     1     130.807 123.744 179.635  0.00  0.00    +0.000 A 
ATOM     11  O   UNL     1     130.677 120.918 177.664  0.00  0.00    +0.000 OA
ATOM     12  O   UNL     1     131.670 121.203 176.165  0.00  0.00    +0.000 OA
ATOM     13 CL   UNL     1     129.529 123.427 181.602  0.00  0.00    +0.000 Cl
ENDROOT
BRANCH   4  14
ATOM     14  S   UNL     1     129.130 121.214 180.573  0.00  0.00    +0.000 S 
ATOM     15  O   UNL     1     130.067 120.896 181.178  0.00  0.00    +0.000 OA
ATOM     16  O   UNL     1     128.428 120.445 181.306  0.00  0.00    +0.000 OA
ATOM     17  N   UNL     1     128.152 121.542 179.946  0.00  0.00    +0.000 NA
ENDBRANCH   4  14
BRANCH   5  18
ATOM     18  C   UNL     1     133.094 124.368 176.157  0.00  0.00    +0.000 C 
ATOM     19  C   UNL     1     132.818 124.586 174.994  0.00  0.00    +0.000 C 
BRANCH  18  20
ATOM     20  C   UNL     1     134.107 124.868 176.651  0.00  0.00    +0.000 C 
ATOM     21  C   UNL     1     134.749 124.233 177.455  0.00  0.00    +0.000 C 
BRANCH  20  22
ATOM     22  C   UNL     1     134.480 126.001 176.343  0.00  0.00    +0.000 C 
ATOM     23  C   UNL     1     135.789 126.253 176.157  0.00  0.00    +0.000 C 
ENDBRANCH  20  22
ENDBRANCH  18  20
ENDBRANCH   5  18
TORSDOF 4
ENDMDL
MODEL 5
REMARK VINA RESULT:      -7.9     53.257     54.347
REMARK  Name = 
REMARK  4 active torsions:
REMARK  status: ('A' for Active; 'I' for Inactive)
REMARK    1  A    between atoms: S_4  and  C_5
REMARK    2  A    between atoms: C_6  and  C_16
REMARK    3  A    between atoms: C_16  and  C_19
REMARK    4  A    between atoms: C_19  and  C_21
REMARK                            x       y       z     vdW  Elec       q    Type
REMARK                         _______ _______ _______ _____ _____    ______ ____
ROOT
ATOM      1  S   UNL     1     130.503 123.712 179.400  0.00  0.00    +0.000 S 
ATOM      2  N   UNL     1     129.932 123.011 180.229  0.00  0.00    +0.000 NA
ATOM      3  C   UNL     1     131.048 123.210 178.461  0.00  0.00    +0.000 A 
ATOM      4  C   UNL     1     132.147 123.405 176.721  0.00  0.00    +0.000 A 
ATOM      5  C   UNL     1     129.925 121.812 180.089  0.00  0.00    +0.000 C 
ATOM      6  C   UNL     1     131.041 122.010 178.321  0.00  0.00    +0.000 A 
ATOM      7  N   UNL     1     130.488 121.311 179.121  0.00  0.00    +0.000 NA
ATOM      8  C   UNL     1     131.604 123.908 177.656  0.00  0.00    +0.000 A 
ATOM      9  C   UNL     1     132.139 122.205 176.581  0.00  0.00    +0.000 A 
ATOM     10  C   UNL     1     131.589 121.507 177.378  0.00  0.00    +0.000 A 
ATOM     11  O   UNL     1     131.004 124.632 178.711  0.00  0.00    +0.000 OA
ATOM     12  O   UNL     1     130.036 124.444 180.242  0.00  0.00    +0.000 OA
ATOM     13 CL   UNL     1     132.846 121.694 175.381  0.00  0.00    +0.000 Cl
ENDROOT
BRANCH   4  14
ATOM     14  S   UNL     1     132.699 124.103 175.921  0.00  0.00    +0.000 S 
ATOM     15  O   UNL     1     133.677 123.985 176.531  0.00  0.00    +0.000 OA
ATOM     16  O   UNL     1     133.332 124.839 175.098  0.00  0.00    +0.000 OA
ATOM     17  N   UNL     1     131.682 124.228 175.281  0.00  0.00    +0.000 NA
ENDBRANCH   4  14
BRANCH   5  18
ATOM     18  C   UNL     1     129.352 121.109 180.921  0.00  0.00    +0.000 C 
ATOM     19  C   UNL     1     128.426 120.394 180.596  0.00  0.00    +0.000 C 
BRANCH  18  20
ATOM     20  C   UNL     1     129.725 121.135 182.096  0.00  0.00    +0.000 C 
ATOM     21  C   UNL     1     130.858 120.808 182.365  0.00  0.00    +0.000 C 
BRANCH  20  22
ATOM     22  C   UNL     1     128.969 121.486 183.002  0.00  0.00    +0.000 C 
ATOM     23  C   UNL     1     129.241 121.151 184.277  0.00  0.00    +0.000 C 
ENDBRANCH  20  22
ENDBRANCH  18  20
ENDBRANCH   5  18
TORSDOF 4
ENDMDL
MODEL 6
REMARK VINA RESULT:      -7.8     52.014     53.172
REMARK  Name = 
REMARK  4 active torsions:
REMARK  status: ('A' for Active; 'I' for Inactive)
REMARK    1  A    between atoms: S_4  and  C_5
REMARK    2  A    between atoms: C_6  and  C_16
REMARK    3  A    between atoms: C_16  and  C_19
REMARK    4  A    between atoms: C_19  and  C_21
REMARK                            x       y       z     vdW  Elec       q    Type
REMARK                         _______ _______ _______ _____ _____    ______ ____
ROOT
ATOM      1  S   UNL     1     130.147 123.327 177.928  0.00  0.00    +0.000 S 
ATOM      2  N   UNL     1     130.228 122.980 179.102  0.00  0.00    +0.000 NA
ATOM      3  C   UNL     1     130.173 122.507 177.056  0.00  0.00    +0.000 A 
ATOM      4  C   UNL     1     130.118 122.042 175.043  0.00  0.00    +0.000 A 
ATOM      5  C   UNL     1     130.335 121.807 179.370  0.00  0.00    +0.000 C 
ATOM      6  C   UNL     1     130.280 121.334 177.325  0.00  0.00    +0.000 A 
ATOM      7  N   UNL     1     130.360 120.980 178.465  0.00  0.00    +0.000 NA
ATOM      8  C   UNL     1     130.092 122.860 175.911  0.00  0.00    +0.000 A 
ATOM      9  C   UNL     1     130.225 120.869 175.312  0.00  0.00    +0.000 A 
ATOM     10  C   UNL     1     130.306 120.513 176.448  0.00  0.00    +0.000 A 
ATOM     11  O   UNL     1     130.048 123.929 176.834  0.00  0.00    +0.000 OA
ATOM     12  O   UNL     1     130.098 124.324 178.611  0.00  0.00    +0.000 OA
ATOM     13 CL   UNL     1     130.246 119.944 174.151  0.00  0.00    +0.000 Cl
ENDROOT
BRANCH   4  14
ATOM     14  S   UNL     1     130.037 122.396 173.903  0.00  0.00    +0.000 S 
ATOM     15  O   UNL     1     131.195 122.420 173.855  0.00  0.00    +0.000 OA
ATOM     16  O   UNL     1     130.005 122.774 172.688  0.00  0.00    +0.000 OA
ATOM     17  N   UNL     1     128.831 122.372 173.949  0.00  0.00    +0.000 NA
ENDBRANCH   4  14
BRANCH   5  18
ATOM     18  C   UNL     1     130.417 121.461 180.548  0.00  0.00    +0.000 C 
ATOM     19  C   UNL     1     131.494 121.186 181.040  0.00  0.00    +0.000 C 
BRANCH  18  20
ATOM     20  C   UNL     1     129.394 121.393 181.232  0.00  0.00    +0.000 C 
ATOM     21  C   UNL     1     128.585 120.525 181.004  0.00  0.00    +0.000 C 
BRANCH  20  22
ATOM     22  C   UNL     1     129.178 122.192 182.145  0.00  0.00    +0.000 C 
ATOM     23  C   UNL     1     128.678 121.759 183.317  0.00  0.00    +0.000 C 
ENDBRANCH  20  22
ENDBRANCH  18  20
ENDBRANCH   5  18
TORSDOF 4
ENDMDL
MODEL 7
REMARK VINA RESULT:      -7.5     31.479     32.872
REMARK  Name = 
REMARK  4 active torsions:
REMARK  status: ('A' for Active; 'I' for Inactive)
REMARK    1  A    between atoms: S_4  and  C_5
REMARK    2  A    between atoms: C_6  and  C_16
REMARK    3  A    between atoms: C_16  and  C_19
REMARK    4  A    between atoms: C_19  and  C_21
REMARK                            x       y       z     vdW  Elec       q    Type
REMARK                         _______ _______ _______ _____ _____    ______ ____
ROOT
ATOM      1  S   UNL     1     104.241 135.796 172.133  0.00  0.00    +0.000 S 
ATOM      2  N   UNL     1     103.885 135.138 173.105  0.00  0.00    +0.000 NA
ATOM      3  C   UNL     1     103.484 135.988 171.227  0.00  0.00    +0.000 A 
ATOM      4  C   UNL     1     103.089 136.824 169.378  0.00  0.00    +0.000 A 
ATOM      5  C   UNL     1     102.766 134.686 173.140  0.00  0.00    +0.000 C 
ATOM      6  C   UNL     1     102.364 135.536 171.262  0.00  0.00    +0.000 A 
ATOM      7  N   UNL     1     102.001 134.891 172.203  0.00  0.00    +0.000 NA
ATOM      8  C   UNL     1     103.845 136.634 170.281  0.00  0.00    +0.000 A 
ATOM      9  C   UNL     1     101.969 136.372 169.413  0.00  0.00    +0.000 A 
ATOM     10  C   UNL     1     101.605 135.729 170.351  0.00  0.00    +0.000 A 
ATOM     11  O   UNL     1     104.839 136.487 171.275  0.00  0.00    +0.000 OA
ATOM     12  O   UNL     1     105.172 135.744 172.904  0.00  0.00    +0.000 OA
ATOM     13 CL   UNL     1     101.118 136.673 168.235  0.00  0.00    +0.000 Cl
ENDROOT
BRANCH   4  14
ATOM     14  S   UNL     1     103.451 137.468 168.437  0.00  0.00    +0.000 S 
ATOM     15  O   UNL     1     103.752 136.481 167.910  0.00  0.00    +0.000 OA
ATOM     16  O   UNL     1     103.850 138.108 167.412  0.00  0.00    +0.000 OA
ATOM     17  N   UNL     1     103.138 138.500 168.984  0.00  0.00    +0.000 NA
ENDBRANCH   4  14
BRANCH   5  18
ATOM     18  C   UNL     1     102.410 134.026 174.115  0.00  0.00    +0.000 C 
ATOM     19  C   UNL     1     102.609 134.431 175.243  0.00  0.00    +0.000 C 
BRANCH  18  20
ATOM     20  C   UNL     1     101.846 132.944 173.941  0.00  0.00    +0.000 C 
ATOM     21  C   UNL     1     101.364 132.368 174.889  0.00  0.00    +0.000 C 
BRANCH  20  22
ATOM     22  C   UNL     1     101.762 132.435 172.823  0.00  0.00    +0.000 C 
ATOM     23  C   UNL     1     100.787 131.546 172.556  0.00  0.00    +0.000 C 
ENDBRANCH  20  22
ENDBRANCH  18  20
ENDBRANCH   5  18
TORSDOF 4
ENDMDL
MODEL 8
REMARK VINA RESULT:      -7.5     61.658     62.666
REMARK  Name = 
REMARK  4 active torsions:
REMARK  status: ('A' for Active; 'I' for Inactive)
REMARK    1  A    between atoms: S_4  and  C_5
REMARK    2  A    between atoms: C_6  and  C_16
REMARK    3  A    between atoms: C_16  and  C_19
REMARK    4  A    between atoms: C_19  and  C_21
REMARK                            x       y       z     vdW  Elec       q    Type
REMARK                         _______ _______ _______ _____ _____    ______ ____
ROOT
ATOM      1  S   UNL     1     147.689 130.924 178.146  0.00  0.00    +0.000 S 
ATOM      2  N   UNL     1     148.271 131.037 177.073  0.00  0.00    +0.000 NA
ATOM      3  C   UNL     1     146.843 130.089 178.286  0.00  0.00    +0.000 A 
ATOM      4  C   UNL     1     145.438 129.156 179.480  0.00  0.00    +0.000 A 
ATOM      5  C   UNL     1     147.985 130.299 176.160  0.00  0.00    +0.000 C 
ATOM      6  C   UNL     1     146.558 129.351 177.373  0.00  0.00    +0.000 A 
ATOM      7  N   UNL     1     147.117 129.448 176.319  0.00  0.00    +0.000 NA
ATOM      8  C   UNL     1     146.280 129.989 179.342  0.00  0.00    +0.000 A 
ATOM      9  C   UNL     1     145.152 128.418 178.568  0.00  0.00    +0.000 A 
ATOM     10  C   UNL     1     145.709 128.513 177.516  0.00  0.00    +0.000 A 
ATOM     11  O   UNL     1     147.252 131.014 179.317  0.00  0.00    +0.000 OA
ATOM     12  O   UNL     1     148.487 131.827 178.253  0.00  0.00    +0.000 OA
ATOM     13 CL   UNL     1     144.090 127.422 178.855  0.00  0.00    +0.000 Cl
ENDROOT
BRANCH   4  14
ATOM     14  S   UNL     1     144.878 129.058 180.534  0.00  0.00    +0.000 S 
ATOM     15  O   UNL     1     144.093 129.823 180.158  0.00  0.00    +0.000 OA
ATOM     16  O   UNL     1     144.247 128.990 181.637  0.00  0.00    +0.000 OA
ATOM     17  N   UNL     1     145.695 128.261 180.929  0.00  0.00    +0.000 NA
ENDBRANCH   4  14
BRANCH   5  18
ATOM     18  C   UNL     1     148.571 130.413 175.084  0.00  0.00    +0.000 C 
ATOM     19  C   UNL     1     148.239 131.267 174.285  0.00  0.00    +0.000 C 
BRANCH  18  20
ATOM     20  C   UNL     1     149.503 129.652 174.817  0.00  0.00    +0.000 C 
ATOM     21  C   UNL     1     150.579 130.115 174.521  0.00  0.00    +0.000 C 
BRANCH  20  22
ATOM     22  C   UNL     1     149.361 128.429 174.845  0.00  0.00    +0.000 C 
ATOM     23  C   UNL     1     149.177 127.744 173.701  0.00  0.00    +0.000 C 
ENDBRANCH  20  22
ENDBRANCH  18  20
ENDBRANCH   5  18
TORSDOF 4
ENDMDL
MODEL 9
REMARK VINA RESULT:      -7.4     49.558     50.626
REMARK  Name = 
REMARK  4 active torsions:
REMARK  status: ('A' for Active; 'I' for Inactive)
REMARK    1  A    between atoms: S_4  and  C_5
REMARK    2  A    between atoms: C_6  and  C_16
REMARK    3  A    between atoms: C_16  and  C_19
REMARK    4  A    between atoms: C_19  and  C_21
REMARK                            x       y       z     vdW  Elec       q    Type
REMARK                         _______ _______ _______ _____ _____    ______ ____
ROOT
ATOM      1  S   UNL     1     130.734 124.031 175.102  0.00  0.00    +0.000 S 
ATOM      2  N   UNL     1     131.658 124.187 175.892  0.00  0.00    +0.000 NA
ATOM      3  C   UNL     1     130.845 124.393 173.967  0.00  0.00    +0.000 A 
ATOM      4  C   UNL     1     130.045 124.595 172.072  0.00  0.00    +0.000 A 
ATOM      5  C   UNL     1     132.681 124.709 175.516  0.00  0.00    +0.000 C 
ATOM      6  C   UNL     1     131.868 124.914 173.590  0.00  0.00    +0.000 A 
ATOM      7  N   UNL     1     132.780 125.074 174.349  0.00  0.00    +0.000 NA
ATOM      8  C   UNL     1     129.932 124.234 173.203  0.00  0.00    +0.000 A 
ATOM      9  C   UNL     1     131.068 125.116 171.695  0.00  0.00    +0.000 A 
ATOM     10  C   UNL     1     131.978 125.276 172.450  0.00  0.00    +0.000 A 
ATOM     11  O   UNL     1     129.664 123.761 174.507  0.00  0.00    +0.000 OA
ATOM     12  O   UNL     1     130.382 123.590 176.172  0.00  0.00    +0.000 OA
ATOM     13 CL   UNL     1     131.093 125.524 170.269  0.00  0.00    +0.000 Cl
ENDROOT
BRANCH   4  14
ATOM     14  S   UNL     1     129.134 124.435 171.313  0.00  0.00    +0.000 S 
ATOM     15  O   UNL     1     128.721 125.470 171.631  0.00  0.00    +0.000 OA
ATOM     16  O   UNL     1     128.145 124.313 170.520  0.00  0.00    +0.000 OA
ATOM     17  N   UNL     1     129.561 123.356 170.978  0.00  0.00    +0.000 NA
ENDBRANCH   4  14
BRANCH   5  18
ATOM     18  C   UNL     1     133.608 124.865 176.309  0.00  0.00    +0.000 C 
ATOM     19  C   UNL     1     134.025 123.932 176.967  0.00  0.00    +0.000 C 
BRANCH  18  20
ATOM     20  C   UNL     1     134.116 125.981 176.435  0.00  0.00    +0.000 C 
ATOM     21  C   UNL     1     133.405 126.935 176.651  0.00  0.00    +0.000 C 
BRANCH  20  22
ATOM     22  C   UNL     1     135.334 126.146 176.346  0.00  0.00    +0.000 C 
ATOM     23  C   UNL     1     135.835 126.987 175.423  0.00  0.00    +0.000 C 
ENDBRANCH  20  22
ENDBRANCH  18  20
ENDBRANCH   5  18
TORSDOF 4
ENDMDL
MODEL 10
REMARK VINA RESULT:      -7.3     15.840     17.505
REMARK  Name = 
REMARK  4 active torsions:
REMARK  status: ('A' for Active; 'I' for Inactive)
REMARK    1  A    between atoms: S_4  and  C_5
REMARK    2  A    between atoms: C_6  and  C_16
REMARK    3  A    between atoms: C_16  and  C_19
REMARK    4  A    between atoms: C_19  and  C_21
REMARK                            x       y       z     vdW  Elec       q    Type
REMARK                         _______ _______ _______ _____ _____    ______ ____
ROOT
ATOM      1  S   UNL     1      98.816 133.816 125.660  0.00  0.00    +0.000 S 
ATOM      2  N   UNL     1      99.379 134.599 126.417  0.00  0.00    +0.000 NA
ATOM      3  C   UNL     1      98.474 134.173 124.571  0.00  0.00    +0.000 A 
ATOM      4  C   UNL     1      97.583 133.755 122.753  0.00  0.00    +0.000 A 
ATOM      5  C   UNL     1      99.585 135.733 126.055  0.00  0.00    +0.000 C 
ATOM      6  C   UNL     1      98.680 135.307 124.209  0.00  0.00    +0.000 A 
ATOM      7  N   UNL     1      99.228 136.084 124.936  0.00  0.00    +0.000 NA
ATOM      8  C   UNL     1      97.924 133.396 123.839  0.00  0.00    +0.000 A 
ATOM      9  C   UNL     1      97.789 134.888 122.391  0.00  0.00    +0.000 A 
ATOM     10  C   UNL     1      98.336 135.665 123.115  0.00  0.00    +0.000 A 
ATOM     11  O   UNL     1      98.272 132.841 125.091  0.00  0.00    +0.000 OA
ATOM     12  O   UNL     1      99.059 133.225 126.687  0.00  0.00    +0.000 OA
ATOM     13 CL   UNL     1      97.322 135.220 121.022  0.00  0.00    +0.000 Cl
ENDROOT
BRANCH   4  14
ATOM     14  S   UNL     1      97.035 132.978 122.026  0.00  0.00    +0.000 S 
ATOM     15  O   UNL     1      98.074 132.657 121.627  0.00  0.00    +0.000 OA
ATOM     16  O   UNL     1      96.500 132.138 121.234  0.00  0.00    +0.000 OA
ATOM     17  N   UNL     1      95.950 133.310 122.440  0.00  0.00    +0.000 NA
ENDBRANCH   4  14
BRANCH   5  18
ATOM     18  C   UNL     1     100.150 136.518 126.816  0.00  0.00    +0.000 C 
ATOM     19  C   UNL     1      99.530 137.086 127.693  0.00  0.00    +0.000 C 
BRANCH  18  20
ATOM     20  C   UNL     1     101.358 136.728 126.683  0.00  0.00    +0.000 C 
ATOM     21  C   UNL     1     102.147 135.877 127.021  0.00  0.00    +0.000 C 
BRANCH  20  22
ATOM     22  C   UNL     1     101.777 137.786 126.213  0.00  0.00    +0.000 C 
ATOM     23  C   UNL     1     102.833 137.782 125.378  0.00  0.00    +0.000 C 
ENDBRANCH  20  22
ENDBRANCH  18  20
ENDBRANCH   5  18
TORSDOF 4
ENDMDL
MODEL 11
REMARK VINA RESULT:      -7.2     51.221     52.508
REMARK  Name = 
REMARK  4 active torsions:
REMARK  status: ('A' for Active; 'I' for Inactive)
REMARK    1  A    between atoms: S_4  and  C_5
REMARK    2  A    between atoms: C_6  and  C_16
REMARK    3  A    between atoms: C_16  and  C_19
REMARK    4  A    between atoms: C_19  and  C_21
REMARK                            x       y       z     vdW  Elec       q    Type
REMARK                         _______ _______ _______ _____ _____    ______ ____
ROOT
ATOM      1  S   UNL     1     108.885 122.377 188.239  0.00  0.00    +0.000 S 
ATOM      2  N   UNL     1     109.260 121.927 187.162  0.00  0.00    +0.000 NA
ATOM      3  C   UNL     1     108.635 123.543 188.349  0.00  0.00    +0.000 A 
ATOM      4  C   UNL     1     108.020 125.133 189.518  0.00  0.00    +0.000 A 
ATOM      5  C   UNL     1     109.376 122.668 186.215  0.00  0.00    +0.000 C 
ATOM      6  C   UNL     1     108.751 124.283 187.402  0.00  0.00    +0.000 A 
ATOM      7  N   UNL     1     109.116 123.860 186.344  0.00  0.00    +0.000 NA
ATOM      8  C   UNL     1     108.269 123.971 189.410  0.00  0.00    +0.000 A 
ATOM      9  C   UNL     1     108.136 125.874 188.571  0.00  0.00    +0.000 A 
ATOM     10  C   UNL     1     108.500 125.453 187.515  0.00  0.00    +0.000 A 
ATOM     11  O   UNL     1     108.527 122.582 189.422  0.00  0.00    +0.000 OA
ATOM     12  O   UNL     1     109.070 121.191 188.380  0.00  0.00    +0.000 OA
ATOM     13 CL   UNL     1     107.800 127.297 188.824  0.00  0.00    +0.000 Cl
ENDROOT
BRANCH   4  14
ATOM     14  S   UNL     1     107.655 125.557 190.576  0.00  0.00    +0.000 S 
ATOM     15  O   UNL     1     106.562 125.482 190.199  0.00  0.00    +0.000 OA
ATOM     16  O   UNL     1     107.216 126.005 191.683  0.00  0.00    +0.000 OA
ATOM     17  N   UNL     1     108.794 125.637 190.971  0.00  0.00    +0.000 NA
ENDBRANCH   4  14
BRANCH   5  18
ATOM     18  C   UNL     1     109.752 122.215 185.135  0.00  0.00    +0.000 C 
ATOM     19  C   UNL     1     110.720 122.684 184.569  0.00  0.00    +0.000 C 
BRANCH  18  20
ATOM     20  C   UNL     1     109.139 121.275 184.624  0.00  0.00    +0.000 C 
ATOM     21  C   UNL     1     109.651 120.181 184.594  0.00  0.00    +0.000 C 
BRANCH  20  22
ATOM     22  C   UNL     1     108.015 121.428 184.144  0.00  0.00    +0.000 C 
ATOM     23  C   UNL     1     107.205 120.367 183.973  0.00  0.00    +0.000 C 
ENDBRANCH  20  22
ENDBRANCH  18  20
ENDBRANCH   5  18
TORSDOF 4
ENDMDL
MODEL 12
REMARK VINA RESULT:      -7.2     61.559     62.464
REMARK  Name = 
REMARK  4 active torsions:
REMARK  status: ('A' for Active; 'I' for Inactive)
REMARK    1  A    between atoms: S_4  and  C_5
REMARK    2  A    between atoms: C_6  and  C_16
REMARK    3  A    between atoms: C_16  and  C_19
REMARK    4  A    between atoms: C_19  and  C_21
REMARK                            x       y       z     vdW  Elec       q    Type
REMARK                         _______ _______ _______ _____ _____    ______ ____
ROOT
ATOM      1  S   UNL     1     145.405 128.474 178.143  0.00  0.00    +0.000 S 
ATOM      2  N   UNL     1     144.607 128.173 179.024  0.00  0.00    +0.000 NA
ATOM      3  C   UNL     1     145.980 129.522 178.186  0.00  0.00    +0.000 A 
ATOM      4  C   UNL     1     147.332 130.851 177.361  0.00  0.00    +0.000 A 
ATOM      5  C   UNL     1     144.406 128.942 179.933  0.00  0.00    +0.000 C 
ATOM      6  C   UNL     1     145.779 130.292 179.095  0.00  0.00    +0.000 A 
ATOM      7  N   UNL     1     145.003 130.013 179.963  0.00  0.00    +0.000 NA
ATOM      8  C   UNL     1     146.759 129.805 177.317  0.00  0.00    +0.000 A 
ATOM      9  C   UNL     1     147.131 131.620 178.270  0.00  0.00    +0.000 A 
ATOM     10  C   UNL     1     146.357 131.344 179.136  0.00  0.00    +0.000 A 
ATOM     11  O   UNL     1     146.154 128.540 177.141  0.00  0.00    +0.000 OA
ATOM     12  O   UNL     1     144.961 127.380 177.880  0.00  0.00    +0.000 OA
ATOM     13 CL   UNL     1     147.899 132.889 178.219  0.00  0.00    +0.000 Cl
ENDROOT
BRANCH   4  14
ATOM     14  S   UNL     1     148.108 131.130 176.494  0.00  0.00    +0.000 S 
ATOM     15  O   UNL     1     147.237 131.618 175.906  0.00  0.00    +0.000 OA
ATOM     16  O   UNL     1     148.894 131.449 175.544  0.00  0.00    +0.000 OA
ATOM     17  N   UNL     1     149.019 130.621 177.103  0.00  0.00    +0.000 NA
ENDBRANCH   4  14
BRANCH   5  18
ATOM     18  C   UNL     1     143.604 128.639 180.816  0.00  0.00    +0.000 C 
ATOM     19  C   UNL     1     142.483 128.266 180.534  0.00  0.00    +0.000 C 
BRANCH  18  20
ATOM     20  C   UNL     1     143.946 128.717 181.998  0.00  0.00    +0.000 C 
ATOM     21  C   UNL     1     144.872 128.047 182.392  0.00  0.00    +0.000 C 
BRANCH  20  22
ATOM     22  C   UNL     1     143.365 129.464 182.787  0.00  0.00    +0.000 C 
ATOM     23  C   UNL     1     144.072 130.195 183.668  0.00  0.00    +0.000 C 
ENDBRANCH  20  22
ENDBRANCH  18  20
ENDBRANCH   5  18
TORSDOF 4
ENDMDL
MODEL 13
REMARK VINA RESULT:      -7.1     54.750     56.059
REMARK  Name = 
REMARK  4 active torsions:
REMARK  status: ('A' for Active; 'I' for Inactive)
REMARK    1  A    between atoms: S_4  and  C_5
REMARK    2  A    between atoms: C_6  and  C_16
REMARK    3  A    between atoms: C_16  and  C_19
REMARK    4  A    between atoms: C_19  and  C_21
REMARK                            x       y       z     vdW  Elec       q    Type
REMARK                         _______ _______ _______ _____ _____    ______ ____
ROOT
ATOM      1  S   UNL     1     132.104 110.407 171.886  0.00  0.00    +0.000 S 
ATOM      2  N   UNL     1     131.586 111.416 171.421  0.00  0.00    +0.000 NA
ATOM      3  C   UNL     1     132.780 109.703 171.193  0.00  0.00    +0.000 A 
ATOM      4  C   UNL     1     133.954 108.017 170.968  0.00  0.00    +0.000 A 
ATOM      5  C   UNL     1     131.763 111.693 170.259  0.00  0.00    +0.000 C 
ATOM      6  C   UNL     1     132.956 109.981 170.030  0.00  0.00    +0.000 A 
ATOM      7  N   UNL     1     132.457 110.962 169.561  0.00  0.00    +0.000 NA
ATOM      8  C   UNL     1     133.281 108.717 171.661  0.00  0.00    +0.000 A 
ATOM      9  C   UNL     1     134.131 108.295 169.806  0.00  0.00    +0.000 A 
ATOM     10  C   UNL     1     133.635 109.273 169.336  0.00  0.00    +0.000 A 
ATOM     11  O   UNL     1     132.512 109.453 172.590  0.00  0.00    +0.000 OA
ATOM     12  O   UNL     1     131.479 110.942 172.772  0.00  0.00    +0.000 OA
ATOM     13 CL   UNL     1     134.985 107.351 169.043  0.00  0.00    +0.000 Cl
ENDROOT
BRANCH   4  14
ATOM     14  S   UNL     1     134.453 107.036 171.437  0.00  0.00    +0.000 S 
ATOM     15  O   UNL     1     133.516 106.436 171.114  0.00  0.00    +0.000 OA
ATOM     16  O   UNL     1     134.941 105.964 171.921  0.00  0.00    +0.000 OA
ATOM     17  N   UNL     1     135.432 107.658 171.776  0.00  0.00    +0.000 NA
ENDBRANCH   4  14
BRANCH   5  18
ATOM     18  C   UNL     1     131.242 112.706 169.793  0.00  0.00    +0.000 C 
ATOM     19  C   UNL     1     130.033 112.814 169.740  0.00  0.00    +0.000 C 
BRANCH  18  20
ATOM     20  C   UNL     1     131.959 113.619 169.376  0.00  0.00    +0.000 C 
ATOM     21  C   UNL     1     131.946 113.891 168.198  0.00  0.00    +0.000 C 
BRANCH  20  22
ATOM     22  C   UNL     1     132.687 114.261 170.134  0.00  0.00    +0.000 C 
ATOM     23  C   UNL     1     133.298 115.378 169.698  0.00  0.00    +0.000 C 
ENDBRANCH  20  22
ENDBRANCH  18  20
ENDBRANCH   5  18
TORSDOF 4
ENDMDL
MODEL 14
REMARK VINA RESULT:      -7.0     61.118     61.996
REMARK  Name = 
REMARK  4 active torsions:
REMARK  status: ('A' for Active; 'I' for Inactive)
REMARK    1  A    between atoms: S_4  and  C_5
REMARK    2  A    between atoms: C_6  and  C_16
REMARK    3  A    between atoms: C_16  and  C_19
REMARK    4  A    between atoms: C_19  and  C_21
REMARK                            x       y       z     vdW  Elec       q    Type
REMARK                         _______ _______ _______ _____ _____    ______ ____
ROOT
ATOM      1  S   UNL     1     145.648 128.503 177.797  0.00  0.00    +0.000 S 
ATOM      2  N   UNL     1     144.794 128.125 178.591  0.00  0.00    +0.000 NA
ATOM      3  C   UNL     1     146.223 129.537 177.978  0.00  0.00    +0.000 A 
ATOM      4  C   UNL     1     147.629 130.926 177.375  0.00  0.00    +0.000 A 
ATOM      5  C   UNL     1     144.538 128.803 179.557  0.00  0.00    +0.000 C 
ATOM      6  C   UNL     1     145.967 130.215 178.944  0.00  0.00    +0.000 A 
ATOM      7  N   UNL     1     145.136 129.861 179.730  0.00  0.00    +0.000 NA
ATOM      8  C   UNL     1     147.057 129.895 177.192  0.00  0.00    +0.000 A 
ATOM      9  C   UNL     1     147.373 131.605 178.341  0.00  0.00    +0.000 A 
ATOM     10  C   UNL     1     146.544 131.253 179.125  0.00  0.00    +0.000 A 
ATOM     11  O   UNL     1     146.461 128.660 176.855  0.00  0.00    +0.000 OA
ATOM     12  O   UNL     1     145.218 127.445 177.400  0.00  0.00    +0.000 OA
ATOM     13 CL   UNL     1     148.147 132.865 178.464  0.00  0.00    +0.000 Cl
ENDROOT
BRANCH   4  14
ATOM     14  S   UNL     1     148.460 131.282 176.591  0.00  0.00    +0.000 S 
ATOM     15  O   UNL     1     149.255 130.713 177.213  0.00  0.00    +0.000 OA
ATOM     16  O   UNL     1     149.380 131.633 175.785  0.00  0.00    +0.000 OA
ATOM     17  N   UNL     1     147.635 131.876 175.939  0.00  0.00    +0.000 NA
ENDBRANCH   4  14
BRANCH   5  18
ATOM     18  C   UNL     1     143.681 128.423 180.354  0.00  0.00    +0.000 C 
ATOM     19  C   UNL     1     143.974 128.170 181.506  0.00  0.00    +0.000 C 
BRANCH  18  20
ATOM     20  C   UNL     1     142.514 128.299 179.975  0.00  0.00    +0.000 C 
ATOM     21  C   UNL     1     141.787 129.265 179.973  0.00  0.00    +0.000 C 
BRANCH  20  22
ATOM     22  C   UNL     1     142.073 127.213 179.600  0.00  0.00    +0.000 C 
ATOM     23  C   UNL     1     141.203 127.155 178.575  0.00  0.00    +0.000 C 
ENDBRANCH  20  22
ENDBRANCH  18  20
ENDBRANCH   5  18
TORSDOF 4
ENDMDL
MODEL 15
REMARK VINA RESULT:      -6.9     65.497     66.589
REMARK  Name = 
REMARK  4 active torsions:
REMARK  status: ('A' for Active; 'I' for Inactive)
REMARK    1  A    between atoms: S_4  and  C_5
REMARK    2  A    between atoms: C_6  and  C_16
REMARK    3  A    between atoms: C_16  and  C_19
REMARK    4  A    between atoms: C_19  and  C_21
REMARK                            x       y       z     vdW  Elec       q    Type
REMARK                         _______ _______ _______ _____ _____    ______ ____
ROOT
ATOM      1  S   UNL     1     139.444 134.925 190.796  0.00  0.00    +0.000 S 
ATOM      2  N   UNL     1     139.715 135.633 191.759  0.00  0.00    +0.000 NA
ATOM      3  C   UNL     1     140.315 134.521 190.082  0.00  0.00    +0.000 A 
ATOM      4  C   UNL     1     140.906 133.427 188.431  0.00  0.00    +0.000 A 
ATOM      5  C   UNL     1     140.867 135.921 191.981  0.00  0.00    +0.000 C 
ATOM      6  C   UNL     1     141.467 134.809 190.303  0.00  0.00    +0.000 A 
ATOM      7  N   UNL     1     141.749 135.500 191.240  0.00  0.00    +0.000 NA
ATOM      8  C   UNL     1     140.036 133.828 189.142  0.00  0.00    +0.000 A 
ATOM      9  C   UNL     1     142.058 133.714 188.653  0.00  0.00    +0.000 A 
ATOM     10  C   UNL     1     142.341 134.403 189.585  0.00  0.00    +0.000 A 
ATOM     11  O   UNL     1     138.912 134.232 189.897  0.00  0.00    +0.000 OA
ATOM     12  O   UNL     1     138.407 135.200 191.354  0.00  0.00    +0.000 OA
ATOM     13 CL   UNL     1     143.053 133.159 187.702  0.00  0.00    +0.000 Cl
ENDROOT
BRANCH   4  14
ATOM     14  S   UNL     1     140.625 132.736 187.495  0.00  0.00    +0.000 S 
ATOM     15  O   UNL     1     140.757 131.806 188.173  0.00  0.00    +0.000 OA
ATOM     16  O   UNL     1     140.332 131.959 186.530  0.00  0.00    +0.000 OA
ATOM     17  N   UNL     1     140.486 133.703 186.784  0.00  0.00    +0.000 NA
ENDBRANCH   4  14
BRANCH   5  18
ATOM     18  C   UNL     1     141.138 136.632 192.947  0.00  0.00    +0.000 C 
ATOM     19  C   UNL     1     141.587 137.750 192.788  0.00  0.00    +0.000 C 
BRANCH  18  20
ATOM     20  C   UNL     1     140.950 136.202 194.088  0.00  0.00    +0.000 C 
ATOM     21  C   UNL     1     141.114 135.025 194.311  0.00  0.00    +0.000 C 
BRANCH  20  22
ATOM     22  C   UNL     1     140.600 136.946 195.005  0.00  0.00    +0.000 C 
ATOM     23  C   UNL     1     140.888 136.627 196.280  0.00  0.00    +0.000 C 
ENDBRANCH  20  22
ENDBRANCH  18  20
ENDBRANCH   5  18
TORSDOF 4
ENDMDL
MODEL 16
REMARK VINA RESULT:      -6.7     52.081     53.232
REMARK  Name = 
REMARK  4 active torsions:
REMARK  status: ('A' for Active; 'I' for Inactive)
REMARK    1  A    between atoms: S_4  and  C_5
REMARK    2  A    between atoms: C_6  and  C_16
REMARK    3  A    between atoms: C_16  and  C_19
REMARK    4  A    between atoms: C_19  and  C_21
REMARK                            x       y       z     vdW  Elec       q    Type
REMARK                         _______ _______ _______ _____ _____    ______ ____
ROOT
ATOM      1  S   UNL     1     108.559 122.817 186.782  0.00  0.00    +0.000 S 
ATOM      2  N   UNL     1     108.782 123.727 187.573  0.00  0.00    +0.000 NA
ATOM      3  C   UNL     1     108.069 121.794 187.165  0.00  0.00    +0.000 A 
ATOM      4  C   UNL     1     107.368 119.892 186.764  0.00  0.00    +0.000 A 
ATOM      5  C   UNL     1     108.504 123.583 188.740  0.00  0.00    +0.000 C 
ATOM      6  C   UNL     1     107.792 121.651 188.332  0.00  0.00    +0.000 A 
ATOM      7  N   UNL     1     108.003 122.529 189.117  0.00  0.00    +0.000 NA
ATOM      8  C   UNL     1     107.856 120.911 186.380  0.00  0.00    +0.000 A 
ATOM      9  C   UNL     1     107.091 119.748 187.930  0.00  0.00    +0.000 A 
ATOM     10  C   UNL     1     107.301 120.623 188.715  0.00  0.00    +0.000 A 
ATOM     11  O   UNL     1     108.435 122.058 185.793  0.00  0.00    +0.000 OA
ATOM     12  O   UNL     1     109.049 123.732 186.162  0.00  0.00    +0.000 OA
ATOM     13 CL   UNL     1     106.489 118.440 188.291  0.00  0.00    +0.000 Cl
ENDROOT
BRANCH   4  14
ATOM     14  S   UNL     1     107.157 119.013 185.980  0.00  0.00    +0.000 S 
ATOM     15  O   UNL     1     108.255 118.667 186.109  0.00  0.00    +0.000 OA
ATOM     16  O   UNL     1     106.982 118.062 185.151  0.00  0.00    +0.000 OA
ATOM     17  N   UNL     1     106.011 119.370 185.842  0.00  0.00    +0.000 NA
ENDBRANCH   4  14
BRANCH   5  18
ATOM     18  C   UNL     1     108.729 124.497 189.532  0.00  0.00    +0.000 C 
ATOM     19  C   UNL     1     109.803 124.581 190.095  0.00  0.00    +0.000 C 
BRANCH  18  20
ATOM     20  C   UNL     1     107.852 125.335 189.755  0.00  0.00    +0.000 C 
ATOM     21  C   UNL     1     107.058 125.138 190.645  0.00  0.00    +0.000 C 
BRANCH  20  22
ATOM     22  C   UNL     1     107.769 126.369 189.091  0.00  0.00    +0.000 C 
ATOM     23  C   UNL     1     107.139 127.446 189.596  0.00  0.00    +0.000 C 
ENDBRANCH  20  22
ENDBRANCH  18  20
ENDBRANCH   5  18
TORSDOF 4
ENDMDL
MODEL 17
REMARK VINA RESULT:      -6.7     67.893     70.110
REMARK  Name = 
REMARK  4 active torsions:
REMARK  status: ('A' for Active; 'I' for Inactive)
REMARK    1  A    between atoms: S_4  and  C_5
REMARK    2  A    between atoms: C_6  and  C_16
REMARK    3  A    between atoms: C_16  and  C_19
REMARK    4  A    between atoms: C_19  and  C_21
REMARK                            x       y       z     vdW  Elec       q    Type
REMARK                         _______ _______ _______ _____ _____    ______ ____
ROOT
ATOM      1  S   UNL     1     153.741 154.175  99.560  0.00  0.00    +0.000 S 
ATOM      2  N   UNL     1     153.643 153.077 100.097  0.00  0.00    +0.000 NA
ATOM      3  C   UNL     1     154.571 154.361  98.718  0.00  0.00    +0.000 A 
ATOM      4  C   UNL     1     155.484 155.625  97.360  0.00  0.00    +0.000 A 
ATOM      5  C   UNL     1     154.390 152.186  99.769  0.00  0.00    +0.000 C 
ATOM      6  C   UNL     1     155.318 153.470  98.390  0.00  0.00    +0.000 A 
ATOM      7  N   UNL     1     155.235 152.392  98.905  0.00  0.00    +0.000 NA
ATOM      8  C   UNL     1     154.656 155.441  98.200  0.00  0.00    +0.000 A 
ATOM      9  C   UNL     1     156.230 154.734  97.033  0.00  0.00    +0.000 A 
ATOM     10  C   UNL     1     156.150 153.658  97.545  0.00  0.00    +0.000 A 
ATOM     11  O   UNL     1     153.636 155.363  99.174  0.00  0.00    +0.000 OA
ATOM     12  O   UNL     1     152.841 154.238 100.365  0.00  0.00    +0.000 OA
ATOM     13 CL   UNL     1     157.218 155.078  95.980  0.00  0.00    +0.000 Cl
ENDROOT
BRANCH   4  14
ATOM     14  S   UNL     1     155.566 156.702  96.846  0.00  0.00    +0.000 S 
ATOM     15  O   UNL     1     154.712 156.395  96.125  0.00  0.00    +0.000 OA
ATOM     16  O   UNL     1     155.615 157.834  96.265  0.00  0.00    +0.000 OA
ATOM     17  N   UNL     1     156.457 157.025  97.594  0.00  0.00    +0.000 NA
ENDBRANCH   4  14
BRANCH   5  18
ATOM     18  C   UNL     1     154.291 151.085 100.309  0.00  0.00    +0.000 C 
ATOM     19  C   UNL     1     153.519 150.251  99.879  0.00  0.00    +0.000 C 
BRANCH  18  20
ATOM     20  C   UNL     1     154.985 150.829 101.295  0.00  0.00    +0.000 C 
ATOM     21  C   UNL     1     155.926 150.079 101.179  0.00  0.00    +0.000 C 
BRANCH  20  22
ATOM     22  C   UNL     1     154.740 151.320 102.398  0.00  0.00    +0.000 C 
ATOM     23  C   UNL     1     155.087 150.665 103.521  0.00  0.00    +0.000 C 
ENDBRANCH  20  22
ENDBRANCH  18  20
ENDBRANCH   5  18
TORSDOF 4
ENDMDL
MODEL 18
REMARK VINA RESULT:      -6.7     91.191     92.064
REMARK  Name = 
REMARK  4 active torsions:
REMARK  status: ('A' for Active; 'I' for Inactive)
REMARK    1  A    between atoms: S_4  and  C_5
REMARK    2  A    between atoms: C_6  and  C_16
REMARK    3  A    between atoms: C_16  and  C_19
REMARK    4  A    between atoms: C_19  and  C_21
REMARK                            x       y       z     vdW  Elec       q    Type
REMARK                         _______ _______ _______ _____ _____    ______ ____
ROOT
ATOM      1  S   UNL     1     156.261 124.857 208.413  0.00  0.00    +0.000 S 
ATOM      2  N   UNL     1     155.196 124.467 207.948  0.00  0.00    +0.000 NA
ATOM      3  C   UNL     1     156.413 124.920 209.598  0.00  0.00    +0.000 A 
ATOM      4  C   UNL     1     157.611 125.365 211.223  0.00  0.00    +0.000 A 
ATOM      5  C   UNL     1     154.302 124.147 208.695  0.00  0.00    +0.000 C 
ATOM      6  C   UNL     1     155.519 124.600 210.346  0.00  0.00    +0.000 A 
ATOM      7  N   UNL     1     154.473 124.217 209.908  0.00  0.00    +0.000 NA
ATOM      8  C   UNL     1     157.462 125.304 210.041  0.00  0.00    +0.000 A 
ATOM      9  C   UNL     1     156.718 125.045 211.970  0.00  0.00    +0.000 A 
ATOM     10  C   UNL     1     155.674 124.663 211.535  0.00  0.00    +0.000 A 
ATOM     11  O   UNL     1     157.421 125.280 208.629  0.00  0.00    +0.000 OA
ATOM     12  O   UNL     1     156.354 124.883 207.208  0.00  0.00    +0.000 OA
ATOM     13 CL   UNL     1     157.018 125.163 213.418  0.00  0.00    +0.000 Cl
ENDROOT
BRANCH   4  14
ATOM     14  S   UNL     1     158.657 125.748 211.661  0.00  0.00    +0.000 S 
ATOM     15  O   UNL     1     158.225 126.823 211.682  0.00  0.00    +0.000 OA
ATOM     16  O   UNL     1     159.750 126.205 212.128  0.00  0.00    +0.000 OA
ATOM     17  N   UNL     1     159.110 124.629 211.640  0.00  0.00    +0.000 NA
ENDBRANCH   4  14
BRANCH   5  18
ATOM     18  C   UNL     1     153.234 123.756 208.228  0.00  0.00    +0.000 C 
ATOM     19  C   UNL     1     152.594 124.458 207.470  0.00  0.00    +0.000 C 
BRANCH  18  20
ATOM     20  C   UNL     1     152.810 122.639 208.534  0.00  0.00    +0.000 C 
ATOM     21  C   UNL     1     153.080 121.691 207.834  0.00  0.00    +0.000 C 
BRANCH  20  22
ATOM     22  C   UNL     1     152.118 122.467 209.538  0.00  0.00    +0.000 C 
ATOM     23  C   UNL     1     151.455 121.309 209.711  0.00  0.00    +0.000 C 
ENDBRANCH  20  22
ENDBRANCH  18  20
ENDBRANCH   5  18
TORSDOF 4
ENDMDL
MODEL 19
REMARK VINA RESULT:      -6.6     26.920     28.599
REMARK  Name = 
REMARK  4 active torsions:
REMARK  status: ('A' for Active; 'I' for Inactive)
REMARK    1  A    between atoms: S_4  and  C_5
REMARK    2  A    between atoms: C_6  and  C_16
REMARK    3  A    between atoms: C_16  and  C_19
REMARK    4  A    between atoms: C_19  and  C_21
REMARK                            x       y       z     vdW  Elec       q    Type
REMARK                         _______ _______ _______ _____ _____    ______ ____
ROOT
ATOM      1  S   UNL     1      95.887 129.954 114.630  0.00  0.00    +0.000 S 
ATOM      2  N   UNL     1      94.814 130.262 115.138  0.00  0.00    +0.000 NA
ATOM      3  C   UNL     1      96.272 128.822 114.676  0.00  0.00    +0.000 A 
ATOM      4  C   UNL     1      97.707 127.406 114.222  0.00  0.00    +0.000 A 
ATOM      5  C   UNL     1      94.150 129.414 115.685  0.00  0.00    +0.000 C 
ATOM      6  C   UNL     1      95.608 127.975 115.224  0.00  0.00    +0.000 A 
ATOM      7  N   UNL     1      94.558 128.258 115.725  0.00  0.00    +0.000 NA
ATOM      8  C   UNL     1      97.324 128.535 114.174  0.00  0.00    +0.000 A 
ATOM      9  C   UNL     1      97.043 126.558 114.770  0.00  0.00    +0.000 A 
ATOM     10  C   UNL     1      95.996 126.839 115.270  0.00  0.00    +0.000 A 
ATOM     11  O   UNL     1      96.994 129.902 114.045  0.00  0.00    +0.000 OA
ATOM     12  O   UNL     1      95.721 131.139 114.453  0.00  0.00    +0.000 OA
ATOM     13 CL   UNL     1      97.619 125.190 114.767  0.00  0.00    +0.000 Cl
ENDROOT
BRANCH   4  14
ATOM     14  S   UNL     1      98.756 127.122 113.721  0.00  0.00    +0.000 S 
ATOM     15  O   UNL     1      98.199 126.934 112.722  0.00  0.00    +0.000 OA
ATOM     16  O   UNL     1      99.846 126.811 113.143  0.00  0.00    +0.000 OA
ATOM     17  N   UNL     1      99.340 127.316 114.761  0.00  0.00    +0.000 NA
ENDBRANCH   4  14
BRANCH   5  18
ATOM     18  C   UNL     1      93.074 129.723 116.195  0.00  0.00    +0.000 C 
ATOM     19  C   UNL     1      92.991 129.934 117.389  0.00  0.00    +0.000 C 
BRANCH  18  20
ATOM     20  C   UNL     1      92.072 129.820 115.483  0.00  0.00    +0.000 C 
ATOM     21  C   UNL     1      91.670 128.846 114.891  0.00  0.00    +0.000 C 
BRANCH  20  22
ATOM     22  C   UNL     1      91.471 130.889 115.363  0.00  0.00    +0.000 C 
ATOM     23  C   UNL     1      91.215 131.385 114.138  0.00  0.00    +0.000 C 
ENDBRANCH  20  22
ENDBRANCH  18  20
ENDBRANCH   5  18
TORSDOF 4
ENDMDL
MODEL 20
REMARK VINA RESULT:      -6.6     67.819     69.984
REMARK  Name = 
REMARK  4 active torsions:
REMARK  status: ('A' for Active; 'I' for Inactive)
REMARK    1  A    between atoms: S_4  and  C_5
REMARK    2  A    between atoms: C_6  and  C_16
REMARK    3  A    between atoms: C_16  and  C_19
REMARK    4  A    between atoms: C_19  and  C_21
REMARK                            x       y       z     vdW  Elec       q    Type
REMARK                         _______ _______ _______ _____ _____    ______ ____
ROOT
ATOM      1  S   UNL     1     153.434 154.053  99.296  0.00  0.00    +0.000 S 
ATOM      2  N   UNL     1     153.028 152.919  99.527  0.00  0.00    +0.000 NA
ATOM      3  C   UNL     1     154.288 154.231  98.476  0.00  0.00    +0.000 A 
ATOM      4  C   UNL     1     155.527 155.522  97.442  0.00  0.00    +0.000 A 
ATOM      5  C   UNL     1     153.497 151.985  98.922  0.00  0.00    +0.000 C 
ATOM      6  C   UNL     1     154.756 153.296  97.871  0.00  0.00    +0.000 A 
ATOM      7  N   UNL     1     154.371 152.183  98.085  0.00  0.00    +0.000 NA
ATOM      8  C   UNL     1     154.676 155.346  98.259  0.00  0.00    +0.000 A 
ATOM      9  C   UNL     1     155.996 154.587  96.837  0.00  0.00    +0.000 A 
ATOM     10  C   UNL     1     155.613 153.476  97.049  0.00  0.00    +0.000 A 
ATOM     11  O   UNL     1     153.669 155.283  99.248  0.00  0.00    +0.000 OA
ATOM     12  O   UNL     1     152.583 154.134 100.151  0.00  0.00    +0.000 OA
ATOM     13 CL   UNL     1     157.047 154.926  95.846  0.00  0.00    +0.000 Cl
ENDROOT
BRANCH   4  14
ATOM     14  S   UNL     1     155.913 156.634  97.228  0.00  0.00    +0.000 S 
ATOM     15  O   UNL     1     156.769 156.457  97.989  0.00  0.00    +0.000 OA
ATOM     16  O   UNL     1     156.362 157.809  97.035  0.00  0.00    +0.000 OA
ATOM     17  N   UNL     1     155.022 156.823  96.434  0.00  0.00    +0.000 NA
ENDBRANCH   4  14
BRANCH   5  18
ATOM     18  C   UNL     1     153.089 150.848  99.155  0.00  0.00    +0.000 C 
ATOM     19  C   UNL     1     153.448 150.252 100.151  0.00  0.00    +0.000 C 
BRANCH  18  20
ATOM     20  C   UNL     1     152.308 150.310  98.366  0.00  0.00    +0.000 C 
ATOM     21  C   UNL     1     151.139 150.615  98.391  0.00  0.00    +0.000 C 
BRANCH  20  22
ATOM     22  C   UNL     1     152.694 149.469  97.554  0.00  0.00    +0.000 C 
ATOM     23  C   UNL     1     152.126 149.397  96.336  0.00  0.00    +0.000 C 
ENDBRANCH  20  22
ENDBRANCH  18  20
ENDBRANCH   5  18
TORSDOF 4
ENDMDL
