
     RDKit          2D

 26 27  0  0  0  0  0  0  0  0999 V2000
   -1.5750   -3.2042    0.0000 C   0  0  0  0  0  0  0  0  0  0  0  0
   -2.7458   -2.5167    0.0000 N   0  0  0  0  0  0  0  0  0  0  0  0
   -0.3958   -2.5167    0.0000 N   0  0  0  0  0  0  0  0  0  0  0  0
   -1.5875   -4.3000    0.0000 O   0  0  0  0  0  0  0  0  0  0  0  0
    1.9667    2.9458    0.0000 N   0  0  0  0  0  0  0  0  0  0  0  0
    3.1250    3.5958    0.0000 C   0  0  0  0  0  0  0  0  0  0  0  0
   -2.7458   -1.1625    0.0000 C   0  0  0  0  0  0  0  0  0  0  0  0
   -2.7458    2.9458    0.0000 O   0  0  0  0  0  0  0  0  0  0  0  0
   -0.3958    2.9458    0.0000 C   0  0  0  0  0  0  0  0  0  0  0  0
   -2.7458    1.5833    0.0000 C   0  0  0  0  0  0  0  0  0  0  0  0
    0.7917    3.6208    0.0000 C   0  0  0  0  0  0  0  0  0  0  0  0
   -1.5750    3.6208    0.0000 C   0  0  0  0  0  0  0  0  0  0  0  0
    0.7417   -3.1917    0.0000 C   0  0  0  0  0  0  0  0  0  0  0  0
   -3.9208   -0.4792    0.0000 C   0  0  0  0  0  0  0  0  0  0  0  0
   -1.5625   -0.4792    0.0000 C   0  0  0  0  0  0  0  0  0  0  0  0
   -3.9208    0.8958    0.0000 C   0  0  0  0  0  0  0  0  0  0  0  0
   -1.5625    0.8958    0.0000 C   0  0  0  0  0  0  0  0  0  0  0  0
   -0.3958    1.9333    0.0000 O   0  0  0  0  0  0  0  0  0  0  0  0
    4.2542    2.9208    0.0000 C   0  0  0  0  0  0  0  0  0  0  0  0
    3.9292    4.9542    0.0000 C   0  0  0  0  0  0  0  0  0  0  0  0
    2.4792    4.9542    0.0000 C   0  0  0  0  0  0  0  0  0  0  0  0
    0.7417   -4.4792    0.0000 C   0  0  0  0  0  0  0  0  0  0  0  0
    1.8542   -2.5292    0.0000 C   0  0  0  0  0  0  0  0  0  0  0  0
    1.8667   -5.1625    0.0000 C   0  0  0  0  0  0  0  0  0  0  0  0
    3.0042   -3.1917    0.0000 C   0  0  0  0  0  0  0  0  0  0  0  0
    3.0167   -4.5375    0.0000 C   0  0  0  0  0  0  0  0  0  0  0  0
  2  1  1  0
  3  1  1  0
  4  1  2  0
  5 11  1  0
  6  5  1  0
  7  2  1  0
  8 10  1  0
  9 12  1  0
 10 17  1  0
 11  9  1  0
 12  8  1  0
 13  3  1  0
 14  7  2  0
 15  7  1  0
 16 14  1  0
 17 15  2  0
 18  9  1  0
 19  6  1  0
 20  6  1  0
 21  6  1  0
 22 13  1  0
 23 13  1  0
 24 22  1  0
 25 23  1  0
 26 25  1  0
 10 16  2  0
 24 26  1  0
M  END


> <chembl_id>
CHEMBL152067

> <chembl_pref_name>
TALINOLOL
