REMARK  Name = 
REMARK  2 active torsions:
REMARK  status: ('A' for Active; 'I' for Inactive)
REMARK    1  A    between atoms: S_1  and  C_2
REMARK    2  A    between atoms: C_11  and  C_17
REMARK                            x       y       z     vdW  Elec       q    Type
REMARK                         _______ _______ _______ _____ _____    ______ ____
ROOT
ATOM      1  C   UNL     1      -0.113  -1.042   0.000  0.00  0.00    +0.000 A 
ATOM      2  C   UNL     1       1.092  -1.042   0.000  0.00  0.00    +0.000 A 
ATOM      3  C   UNL     1       1.704  -0.692   0.000  0.00  0.00    +0.000 C 
ATOM      4  C   UNL     1       1.092  -1.754   0.000  0.00  0.00    +0.000 A 
ATOM      5  N   UNL     1       2.317  -1.042   0.000  0.00  0.00    +0.000 NA
ATOM      6  C   UNL     1       0.487  -0.692   0.000  0.00  0.00    +0.000 A 
ATOM      7  N   UNL     1       1.704  -2.117   0.000  0.00  0.00    +0.000 NA
ATOM      8  C   UNL     1      -0.113  -1.754   0.000  0.00  0.00    +0.000 A 
ATOM      9  C   UNL     1       0.487  -2.117   0.000  0.00  0.00    +0.000 A 
ATOM     10  C   UNL     1       2.317  -1.754   0.000  0.00  0.00    +0.000 C 
ATOM     11  O   UNL     1       1.704   0.021   0.000  0.00  0.00    +0.000 OA
ATOM     12 CL   UNL     1      -0.725  -2.117   0.000  0.00  0.00    +0.000 Cl
ENDROOT
BRANCH   1  13
ATOM     13  S   UNL     1      -0.729  -0.692   0.000  0.00  0.00    +0.000 S 
ATOM     14  O   UNL     1      -0.383  -0.075   0.000  0.00  0.00    +0.000 OA
ATOM     15  O   UNL     1      -1.087  -0.075   0.000  0.00  0.00    +0.000 OA
ATOM     16  N   UNL     1      -1.342  -1.050   0.000  0.00  0.00    +0.000 NA
ENDBRANCH   1  13
BRANCH  10  17
ATOM     17  C   UNL     1       2.929  -2.117   0.000  0.00  0.00    +0.000 C 
ATOM     18  C   UNL     1       3.550  -1.767   0.000  0.00  0.00    +0.000 C 
ENDBRANCH  10  17
TORSDOF 2
