REMARK  Name = 
REMARK  4 active torsions:
REMARK  status: ('A' for Active; 'I' for Inactive)
REMARK    1  A    between atoms: C_6  and  C_16
REMARK    2  A    between atoms: C_9  and  C_11
REMARK    3  A    between atoms: C_13  and  C_19
REMARK    4  A    between atoms: N_14  and  C_22
REMARK                            x       y       z     vdW  Elec       q    Type
REMARK                         _______ _______ _______ _____ _____    ______ ____
ROOT
ATOM      1  C   UNL     1       1.688  -2.017   0.000  0.00  0.00    +0.000 A 
ATOM      2  C   UNL     1       2.300  -2.367   0.000  0.00  0.00    +0.000 A 
ATOM      3  C   UNL     1       1.654  -1.317   0.000  0.00  0.00    +0.000 A 
ATOM      4  C   UNL     1       2.867  -1.279   0.000  0.00  0.00    +0.000 A 
ATOM      5  C   UNL     1       2.254  -0.929   0.000  0.00  0.00    +0.000 A 
ATOM      6  C   UNL     1       2.904  -1.979   0.000  0.00  0.00    +0.000 A 
ENDROOT
BRANCH   1  12
ATOM      7  N   UNL     1       0.454  -2.062   0.000  0.00  0.00    +0.000 N 
ATOM      8  C   UNL     1      -1.096  -1.654   0.000  0.00  0.00    +0.000 A 
ATOM      9  C   UNL     1      -0.746  -1.042   0.000  0.00  0.00    +0.000 A 
ATOM     10  C   UNL     1      -0.800  -2.312   0.000  0.00  0.00    +0.000 A 
ATOM     11  N   UNL     1      -1.258  -0.529   0.000  0.00  0.00    +0.000 NA
ATOM     12  C   UNL     1       1.067  -2.417   0.000  0.00  0.00    +0.000 C 
ATOM     13  C   UNL     1      -0.121  -2.492   0.000  0.00  0.00    +0.000 A 
ATOM     14  N   UNL     1      -1.783  -1.542   0.000  0.00  0.00    +0.000 NA
ATOM     15  C   UNL     1      -1.896  -0.850   0.000  0.00  0.00    +0.000 A 
ATOM     16  C   UNL     1       0.479  -1.363   0.000  0.00  0.00    +0.000 C 
ATOM     17  C   UNL     1      -0.058  -0.904   0.000  0.00  0.00    +0.000 C 
ATOM     18  O   UNL     1       1.104  -3.112   0.000  0.00  0.00    +0.000 OA
ATOM     19  C   UNL     1      -1.308  -2.812   0.000  0.00  0.00    +0.000 A 
ATOM     20  C   UNL     1       0.067  -3.179   0.000  0.00  0.00    +0.000 A 
ATOM     21  C   UNL     1      -2.508  -0.492   0.000  0.00  0.00    +0.000 C 
ATOM     22  C   UNL     1      -1.121  -3.500   0.000  0.00  0.00    +0.000 A 
ATOM     23  C   UNL     1      -0.433  -3.679   0.000  0.00  0.00    +0.000 A 
ENDBRANCH   1  12
BRANCH   4  25
ATOM     24  C   UNL     1       4.092  -1.250   0.000  0.00  0.00    +0.000 C 
ATOM     25  N   UNL     1       3.479  -0.892   0.000  0.00  0.00    +0.000 NA
ATOM     26  O   UNL     1       4.092  -1.954   0.000  0.00  0.00    +0.000 OA
BRANCH  24  27
ATOM     27  C   UNL     1       4.704  -0.892   0.000  0.00  0.00    +0.000 A 
ATOM     28  C   UNL     1       5.317  -1.250   0.000  0.00  0.00    +0.000 A 
ATOM     29  C   UNL     1       4.704  -0.188   0.000  0.00  0.00    +0.000 A 
ATOM     30  C   UNL     1       5.929  -0.892   0.000  0.00  0.00    +0.000 A 
ATOM     31  C   UNL     1       5.317   0.171   0.000  0.00  0.00    +0.000 A 
ATOM     32  C   UNL     1       5.929  -0.188   0.000  0.00  0.00    +0.000 A 
BRANCH  28  33
ATOM     33  C   UNL     1       5.317  -1.954   0.000  0.00  0.00    +0.000 A 
ATOM     34  C   UNL     1       5.929  -2.312   0.000  0.00  0.00    +0.000 A 
ATOM     35  C   UNL     1       4.704  -2.304   0.000  0.00  0.00    +0.000 A 
ATOM     36  C   UNL     1       4.704  -3.017   0.000  0.00  0.00    +0.000 A 
ATOM     37  C   UNL     1       5.929  -3.017   0.000  0.00  0.00    +0.000 A 
ATOM     38  C   UNL     1       5.317  -3.375   0.000  0.00  0.00    +0.000 A 
ENDBRANCH  28  33
ENDBRANCH  24  27
ENDBRANCH   4  25
TORSDOF 4
