REMARK  Name = 
REMARK  66 active torsions:
REMARK  status: ('A' for Active; 'I' for Inactive)
REMARK    1  A    between atoms: N_1  and  CA_2
REMARK    2  A    between atoms: CA_2  and  C_3
REMARK    3  A    between atoms: CA_2  and  CB_5
REMARK    4  A    between atoms: CB_5  and  CG_6
REMARK    5  A    between atoms: N_9  and  CA_10
REMARK    6  A    between atoms: CA_10  and  C_11
REMARK    7  A    between atoms: CA_10  and  CB_13
REMARK    8  A    between atoms: CB_13  and  CG_19
REMARK    9  A    between atoms: N_21  and  CA_22
REMARK   10  A    between atoms: CA_22  and  C_23
REMARK   11  A    between atoms: CA_22  and  CB_25
REMARK   12  A    between atoms: CB_25  and  CG_26
REMARK   13  A    between atoms: CG_26  and  CD_27
REMARK   14  A    between atoms: N_30  and  CA_31
REMARK   15  A    between atoms: CA_31  and  C_32
REMARK   16  A    between atoms: CA_31  and  CB_34
REMARK   17  A    between atoms: CB_34  and  CG_35
REMARK   18  A    between atoms: CG_35  and  CD_36
REMARK   19  A    between atoms: CA_42  and  C_153
REMARK   20  A    between atoms: N_44  and  CA_45
REMARK   21  A    between atoms: CA_45  and  C_46
REMARK   22  A    between atoms: CA_45  and  CB_48
REMARK   23  A    between atoms: CB_48  and  CG1_50
REMARK   24  A    between atoms: N_52  and  CA_53
REMARK   25  A    between atoms: CA_53  and  C_54
REMARK   26  A    between atoms: CA_53  and  CB_56
REMARK   27  A    between atoms: CB_56  and  CG_57
REMARK   28  A    between atoms: CG_57  and  CD_58
REMARK   29  A    between atoms: N_61  and  CA_62
REMARK   30  A    between atoms: CA_62  and  C_63
REMARK   31  A    between atoms: CA_62  and  CB_65
REMARK   32  A    between atoms: CB_65  and  CG_66
REMARK   33  A    between atoms: CG_66  and  CD_67
REMARK   34  A    between atoms: N_70  and  CA_71
REMARK   35  A    between atoms: CA_71  and  C_72
REMARK   36  A    between atoms: CA_71  and  CB_74
REMARK   37  A    between atoms: CB_74  and  CG_80
REMARK   38  A    between atoms: N_81  and  CA_82
REMARK   39  A    between atoms: CA_82  and  C_83
REMARK   40  A    between atoms: CA_82  and  CB_85
REMARK   41  A    between atoms: CB_85  and  CG_86
REMARK   42  A    between atoms: N_89  and  CA_90
REMARK   43  A    between atoms: CA_90  and  C_91
REMARK   44  A    between atoms: N_93  and  CA_94
REMARK   45  A    between atoms: CA_94  and  C_95
REMARK   46  A    between atoms: CA_94  and  CB_97
REMARK   47  A    between atoms: CB_97  and  CG_98
REMARK   48  A    between atoms: N_101  and  CA_102
REMARK   49  A    between atoms: CA_102  and  C_103
REMARK   50  A    between atoms: N_105  and  CA_106
REMARK   51  A    between atoms: CA_106  and  C_107
REMARK   52  A    between atoms: N_109  and  CA_110
REMARK   53  A    between atoms: CA_110  and  C_111
REMARK   54  A    between atoms: N_113  and  CA_114
REMARK   55  A    between atoms: CA_114  and  C_115
REMARK   56  A    between atoms: CA_120  and  C_151
REMARK   57  A    between atoms: N_122  and  CA_123
REMARK   58  A    between atoms: CA_123  and  C_124
REMARK   59  A    between atoms: CA_123  and  CB_126
REMARK   60  A    between atoms: CB_126  and  CG_127
REMARK   61  A    between atoms: CG_127  and  CD_128
REMARK   62  A    between atoms: CD_128  and  NE_129
REMARK   63  A    between atoms: CA_136  and  C_149
REMARK   64  A    between atoms: CA_139  and  C_140
REMARK   65  A    between atoms: CA_139  and  CB_142
REMARK   66  A    between atoms: CB_142  and  CG_148
REMARK                            x       y       z     vdW  Elec       q    Type
REMARK                         _______ _______ _______ _____ _____    ______ ____
ROOT
ATOM      1  CA  PHE A  12      11.993  -5.604   0.000  0.00  0.00    +0.000 C 
ENDROOT
BRANCH   1   3
ATOM      2  N   GLU A  13      10.767  -5.608   0.000  0.00  0.00    +0.000 NA
ATOM      3  C   PHE A  12      11.377  -5.250   0.000  0.00  0.00    +0.000 C 
ATOM      4  O   PHE A  12      11.377  -4.542   0.000  0.00  0.00    +0.000 OA
BRANCH   2   5
ATOM      5  CA  GLU A  13      10.155  -5.254   0.000  0.00  0.00    +0.000 C 
BRANCH   5   7
ATOM      6  N   GLU A  14       8.925  -5.254   0.000  0.00  0.00    +0.000 NA
ATOM      7  C   GLU A  13       9.539  -5.608   0.000  0.00  0.00    +0.000 C 
ATOM      8  O   GLU A  13       9.539  -6.317   0.000  0.00  0.00    +0.000 OA
BRANCH   6   9
ATOM      9  CA  GLU A  14       8.313  -5.608   0.000  0.00  0.00    +0.000 C 
BRANCH   9  11
ATOM     10  N   ILE A  15       7.088  -5.604   0.000  0.00  0.00    +0.000 NA
ATOM     11  C   GLU A  14       7.697  -5.254   0.000  0.00  0.00    +0.000 C 
ATOM     12  O   GLU A  14       7.697  -4.545   0.000  0.00  0.00    +0.000 OA
BRANCH  10  13
ATOM     13  CA  ILE A  15       6.476  -5.250   0.000  0.00  0.00    +0.000 C 
BRANCH  13  19
ATOM     14  CG  PRO A  16       4.319  -4.578   0.000  0.00  0.00    +0.000 C 
ATOM     15  CD  PRO A  16       5.027  -4.578   0.000  0.00  0.00    +0.000 C 
ATOM     16  N   PRO A  16       5.246  -5.249   0.000  0.00  0.00    +0.000 N 
ATOM     17  CA  PRO A  16       4.673  -5.670   0.000  0.00  0.00    +0.000 C 
ATOM     18  CB  PRO A  16       4.099  -5.249   0.000  0.00  0.00    +0.000 C 
ATOM     19  C   ILE A  15       5.859  -5.604   0.000  0.00  0.00    +0.000 C 
ATOM     20  O   ILE A  15       5.859  -6.312   0.000  0.00  0.00    +0.000 OA
BRANCH  17  22
ATOM     21  N   GLU A  17       4.062  -6.729   0.000  0.00  0.00    +0.000 NA
ATOM     22  C   PRO A  16       4.673  -6.378   0.000  0.00  0.00    +0.000 C 
ATOM     23  O   PRO A  16       5.286  -6.732   0.000  0.00  0.00    +0.000 OA
BRANCH  21  24
ATOM     24  CA  GLU A  17       3.450  -6.375   0.000  0.00  0.00    +0.000 C 
BRANCH  24  26
ATOM     25  N   GLU A  18       2.221  -6.374   0.000  0.00  0.00    +0.000 NA
ATOM     26  C   GLU A  17       2.834  -6.729   0.000  0.00  0.00    +0.000 C 
ATOM     27  O   GLU A  17       2.834  -7.438   0.000  0.00  0.00    +0.000 OA
BRANCH  25  28
ATOM     28  CA  GLU A  18       1.609  -6.729   0.000  0.00  0.00    +0.000 C 
BRANCH  28  30
ATOM     29  N   TYR A  19       0.379  -6.725   0.000  0.00  0.00    +0.000 NA
ATOM     30  C   GLU A  18       0.993  -6.374   0.000  0.00  0.00    +0.000 C 
ATOM     31  O   GLU A  18       0.993  -5.666   0.000  0.00  0.00    +0.000 OA
BRANCH  29  32
ATOM     32  CA  TYR A  19      -0.233  -6.371   0.000  0.00  0.00    +0.000 C 
BRANCH  32  34
ATOM     33  N   LEU A  20      -1.462  -6.371   0.000  0.00  0.00    +0.000 NA
ATOM     34  C   TYR A  19      -0.849  -6.725   0.000  0.00  0.00    +0.000 C 
ATOM     35  O   TYR A  19      -0.849  -7.433   0.000  0.00  0.00    +0.000 OA
BRANCH  33  36
ATOM     36  CA  LEU A  20      -2.075  -6.725   0.000  0.00  0.00    +0.000 C 
BRANCH  36  37
ATOM     37  C   LEU A  20      -2.691  -6.371   0.000  0.00  0.00    +0.000 C 
ATOM     38  O   LEU A  20      -2.691  -5.662   0.000  0.00  0.00    +0.000 OA
ATOM     39  OXT LEU A  20      -3.304  -6.726   0.000  0.00  0.00    +0.000 OA
ENDBRANCH  36  37
BRANCH  36  40
ATOM     40  CB  LEU A  20      -2.075  -7.433   0.000  0.00  0.00    +0.000 C 
BRANCH  40  41
ATOM     41  CG  LEU A  20      -2.691  -7.787   0.000  0.00  0.00    +0.000 C 
ATOM     42  CD2 LEU A  20      -2.691  -8.496   0.000  0.00  0.00    +0.000 C 
ATOM     43  CD1 LEU A  20      -3.303  -7.433   0.000  0.00  0.00    +0.000 C 
ENDBRANCH  40  41
ENDBRANCH  36  40
ENDBRANCH  33  36
ENDBRANCH  32  34
BRANCH  32  44
ATOM     44  CB  TYR A  19      -0.233  -5.662   0.000  0.00  0.00    +0.000 C 
BRANCH  44  50
ATOM     45  CD1 TYR A  19      -0.849  -4.600   0.000  0.00  0.00    +0.000 A 
ATOM     46  CE1 TYR A  19      -1.461  -4.246   0.000  0.00  0.00    +0.000 A 
ATOM     47  CZ  TYR A  19      -2.073  -4.600   0.000  0.00  0.00    +0.000 A 
ATOM     48  CE2 TYR A  19      -2.073  -5.308   0.000  0.00  0.00    +0.000 A 
ATOM     49  CD2 TYR A  19      -1.461  -5.662   0.000  0.00  0.00    +0.000 A 
ATOM     50  CG  TYR A  19      -0.849  -5.308   0.000  0.00  0.00    +0.000 A 
ATOM     51  OH  TYR A  19      -2.689  -4.246   0.000  0.00  0.00    +0.000 OA
ENDBRANCH  44  50
ENDBRANCH  32  44
ENDBRANCH  29  32
ENDBRANCH  28  30
BRANCH  28  52
ATOM     52  CB  GLU A  18       1.609  -7.437   0.000  0.00  0.00    +0.000 C 
BRANCH  52  53
ATOM     53  CG  GLU A  18       0.993  -7.791   0.000  0.00  0.00    +0.000 C 
BRANCH  53  54
ATOM     54  CD  GLU A  18       0.993  -8.499   0.000  0.00  0.00    +0.000 C 
ATOM     55  OE1 GLU A  18       0.381  -8.854   0.000  0.00  0.00    +0.000 OA
ATOM     56  OE2 GLU A  18       1.609  -8.854   0.000  0.00  0.00    +0.000 OA
ENDBRANCH  53  54
ENDBRANCH  52  53
ENDBRANCH  28  52
ENDBRANCH  25  28
ENDBRANCH  24  26
BRANCH  24  57
ATOM     57  CB  GLU A  17       3.450  -5.667   0.000  0.00  0.00    +0.000 C 
BRANCH  57  58
ATOM     58  CG  GLU A  17       2.834  -5.312   0.000  0.00  0.00    +0.000 C 
BRANCH  58  59
ATOM     59  CD  GLU A  17       2.834  -4.604   0.000  0.00  0.00    +0.000 C 
ATOM     60  OE1 GLU A  17       2.222  -4.250   0.000  0.00  0.00    +0.000 OA
ATOM     61  OE2 GLU A  17       3.450  -4.250   0.000  0.00  0.00    +0.000 OA
ENDBRANCH  58  59
ENDBRANCH  57  58
ENDBRANCH  24  57
ENDBRANCH  21  24
ENDBRANCH  17  22
ENDBRANCH  13  19
BRANCH  13  62
ATOM     62  CB  ILE A  15       6.476  -4.542   0.000  0.00  0.00    +0.000 C 
ATOM     63  CG2 ILE A  15       5.859  -4.188   0.000  0.00  0.00    +0.000 C 
BRANCH  62  64
ATOM     64  CG1 ILE A  15       7.088  -4.188   0.000  0.00  0.00    +0.000 C 
ATOM     65  CD1 ILE A  15       7.088  -3.479   0.000  0.00  0.00    +0.000 C 
ENDBRANCH  62  64
ENDBRANCH  13  62
ENDBRANCH  10  13
ENDBRANCH   9  11
BRANCH   9  66
ATOM     66  CB  GLU A  14       8.313  -6.316   0.000  0.00  0.00    +0.000 C 
BRANCH  66  67
ATOM     67  CG  GLU A  14       7.697  -6.670   0.000  0.00  0.00    +0.000 C 
BRANCH  67  68
ATOM     68  CD  GLU A  14       7.697  -7.379   0.000  0.00  0.00    +0.000 C 
ATOM     69  OE1 GLU A  14       7.085  -7.733   0.000  0.00  0.00    +0.000 OA
ATOM     70  OE2 GLU A  14       8.313  -7.733   0.000  0.00  0.00    +0.000 OA
ENDBRANCH  67  68
ENDBRANCH  66  67
ENDBRANCH   9  66
ENDBRANCH   6   9
ENDBRANCH   5   7
BRANCH   5  71
ATOM     71  CB  GLU A  13      10.155  -4.546   0.000  0.00  0.00    +0.000 C 
BRANCH  71  72
ATOM     72  CG  GLU A  13       9.539  -4.192   0.000  0.00  0.00    +0.000 C 
BRANCH  72  73
ATOM     73  CD  GLU A  13       9.539  -3.483   0.000  0.00  0.00    +0.000 C 
ATOM     74  OE1 GLU A  13       8.926  -3.129   0.000  0.00  0.00    +0.000 OA
ATOM     75  OE2 GLU A  13      10.155  -3.129   0.000  0.00  0.00    +0.000 OA
ENDBRANCH  72  73
ENDBRANCH  71  72
ENDBRANCH   5  71
ENDBRANCH   2   5
ENDBRANCH   1   3
BRANCH   1  76
ATOM     76  N   PHE A  12      12.605  -5.250   0.000  0.00  0.00    +0.000 NA
ATOM     77  C   ASP A  11      12.615  -4.542   0.000  0.00  0.00    +0.000 C 
ATOM     78  O   ASP A  11      12.007  -4.178   0.000  0.00  0.00    +0.000 OA
BRANCH  77  79
ATOM     79  CA  ASP A  11      13.235  -4.195   0.000  0.00  0.00    +0.000 C 
BRANCH  79  80
ATOM     80  N   ASP A  11      13.245  -3.488   0.000  0.00  0.00    +0.000 NA
ATOM     81  C   GLY A  10      12.632  -3.134   0.000  0.00  0.00    +0.000 C 
ATOM     82  O   GLY A  10      12.018  -3.487   0.000  0.00  0.00    +0.000 OA
BRANCH  81  83
ATOM     83  CA  GLY A  10      12.631  -2.423   0.000  0.00  0.00    +0.000 C 
BRANCH  83  84
ATOM     84  N   GLY A  10      12.024  -2.073   0.000  0.00  0.00    +0.000 NA
ATOM     85  C   ASN A   9      11.411  -2.428   0.000  0.00  0.00    +0.000 C 
ATOM     86  O   ASN A   9      11.411  -3.136   0.000  0.00  0.00    +0.000 OA
BRANCH  85  87
ATOM     87  CA  ASN A   9      10.795  -2.074   0.000  0.00  0.00    +0.000 C 
BRANCH  87  88
ATOM     88  N   ASN A   9      10.183  -2.428   0.000  0.00  0.00    +0.000 NA
ATOM     89  C   GLY A   8       9.570  -2.073   0.000  0.00  0.00    +0.000 C 
ATOM     90  O   GLY A   8       9.570  -1.365   0.000  0.00  0.00    +0.000 OA
BRANCH  89  91
ATOM     91  CA  GLY A   8       8.954  -2.427   0.000  0.00  0.00    +0.000 C 
BRANCH  91  92
ATOM     92  N   GLY A   8       8.341  -2.073   0.000  0.00  0.00    +0.000 NA
ATOM     93  C   GLY A   7       7.728  -2.428   0.000  0.00  0.00    +0.000 C 
ATOM     94  O   GLY A   7       7.728  -3.136   0.000  0.00  0.00    +0.000 OA
BRANCH  93  95
ATOM     95  CA  GLY A   7       7.112  -2.074   0.000  0.00  0.00    +0.000 C 
BRANCH  95  96
ATOM     96  N   GLY A   7       6.500  -2.428   0.000  0.00  0.00    +0.000 NA
ATOM     97  C   GLY A   6       5.887  -2.073   0.000  0.00  0.00    +0.000 C 
ATOM     98  O   GLY A   6       5.887  -1.365   0.000  0.00  0.00    +0.000 OA
BRANCH  97  99
ATOM     99  CA  GLY A   6       5.271  -2.427   0.000  0.00  0.00    +0.000 C 
BRANCH  99 100
ATOM    100  N   GLY A   6       4.659  -2.073   0.000  0.00  0.00    +0.000 NA
ATOM    101  C   GLY A   5       4.046  -2.428   0.000  0.00  0.00    +0.000 C 
ATOM    102  O   GLY A   5       4.046  -3.136   0.000  0.00  0.00    +0.000 OA
BRANCH 101 103
ATOM    103  CA  GLY A   5       3.430  -2.074   0.000  0.00  0.00    +0.000 C 
BRANCH 103 104
ATOM    104  N   GLY A   5       2.818  -2.428   0.000  0.00  0.00    +0.000 NA
ATOM    105  C   PRO A   4       2.208  -2.067   0.000  0.00  0.00    +0.000 C 
ATOM    106  O   PRO A   4       1.591  -2.414   0.000  0.00  0.00    +0.000 OA
BRANCH 105 110
ATOM    107  CD  PRO A   4       1.863  -0.267   0.000  0.00  0.00    +0.000 C 
ATOM    108  CG  PRO A   4       2.571  -0.267   0.000  0.00  0.00    +0.000 C 
ATOM    109  CB  PRO A   4       2.790  -0.938   0.000  0.00  0.00    +0.000 C 
ATOM    110  CA  PRO A   4       2.217  -1.358   0.000  0.00  0.00    +0.000 C 
ATOM    111  N   PRO A   4       1.643  -0.938   0.000  0.00  0.00    +0.000 N 
ATOM    112  C   ARG A   3       1.028  -1.296   0.000  0.00  0.00    +0.000 C 
ATOM    113  O   ARG A   3       1.028  -2.004   0.000  0.00  0.00    +0.000 OA
BRANCH 112 114
ATOM    114  CA  ARG A   3       0.412  -0.942   0.000  0.00  0.00    +0.000 C 
BRANCH 114 115
ATOM    115  N   ARG A   3      -0.200  -1.296   0.000  0.00  0.00    +0.000 NA
ATOM    116  C   PRO A   2      -0.808  -0.933   0.000  0.00  0.00    +0.000 C 
ATOM    117  O   PRO A   2      -1.426  -1.280   0.000  0.00  0.00    +0.000 OA
BRANCH 116 121
ATOM    118  CD  PRO A   2      -1.154   0.867   0.000  0.00  0.00    +0.000 C 
ATOM    119  CG  PRO A   2      -0.446   0.867   0.000  0.00  0.00    +0.000 C 
ATOM    120  CB  PRO A   2      -0.227   0.195   0.000  0.00  0.00    +0.000 C 
ATOM    121  CA  PRO A   2      -0.800  -0.225   0.000  0.00  0.00    +0.000 C 
ATOM    122  N   PRO A   2      -1.373   0.195   0.000  0.00  0.00    +0.000 N 
ATOM    123  C   PHE A   1      -1.988  -0.158   0.000  0.00  0.00    +0.000 C 
ATOM    124  O   PHE A   1      -1.988  -0.867   0.000  0.00  0.00    +0.000 OA
BRANCH 123 126
ATOM    125  N   PHE A   1      -3.217  -0.158   0.000  0.00  0.00    +0.000 NA
ATOM    126  CA  PHE A   1      -2.605   0.196   0.000  0.00  0.00    +0.000 C 
BRANCH 126 127
ATOM    127  CB  PHE A   1      -2.612   0.904   0.000  0.00  0.00    +0.000 C 
BRANCH 127 133
ATOM    128  CD1 PHE A   1      -3.228   1.967   0.000  0.00  0.00    +0.000 A 
ATOM    129  CE1 PHE A   1      -3.840   2.321   0.000  0.00  0.00    +0.000 A 
ATOM    130  CZ  PHE A   1      -4.452   1.967   0.000  0.00  0.00    +0.000 A 
ATOM    131  CE2 PHE A   1      -4.452   1.258   0.000  0.00  0.00    +0.000 A 
ATOM    132  CD2 PHE A   1      -3.840   0.904   0.000  0.00  0.00    +0.000 A 
ATOM    133  CG  PHE A   1      -3.228   1.258   0.000  0.00  0.00    +0.000 A 
ENDBRANCH 127 133
ENDBRANCH 126 127
ENDBRANCH 123 126
ENDBRANCH 116 121
ENDBRANCH 114 115
BRANCH 114 134
ATOM    134  CB  ARG A   3       0.412  -0.233   0.000  0.00  0.00    +0.000 C 
BRANCH 134 135
ATOM    135  CG  ARG A   3       1.028   0.121   0.000  0.00  0.00    +0.000 C 
BRANCH 135 136
ATOM    136  CD  ARG A   3       1.028   0.829   0.000  0.00  0.00    +0.000 C 
BRANCH 136 137
ATOM    137  NE  ARG A   3       1.640   1.183   0.000  0.00  0.00    +0.000 NA
ATOM    138  CZ  ARG A   3       1.640   1.892   0.000  0.00  0.00    +0.000 C 
ATOM    139  NH1 ARG A   3       2.252   2.246   0.000  0.00  0.00    +0.000 NA
ATOM    140  NH2 ARG A   3       1.028   2.246   0.000  0.00  0.00    +0.000 NA
ENDBRANCH 136 137
ENDBRANCH 135 136
ENDBRANCH 134 135
ENDBRANCH 114 134
ENDBRANCH 112 114
ENDBRANCH 105 110
ENDBRANCH 103 104
ENDBRANCH 101 103
ENDBRANCH  99 100
ENDBRANCH  97  99
ENDBRANCH  95  96
ENDBRANCH  93  95
ENDBRANCH  91  92
ENDBRANCH  89  91
ENDBRANCH  87  88
BRANCH  87 141
ATOM    141  CB  ASN A   9      10.795  -1.365   0.000  0.00  0.00    +0.000 C 
BRANCH 141 142
ATOM    142  CG  ASN A   9      11.411  -1.011   0.000  0.00  0.00    +0.000 C 
ATOM    143  OD1 ASN A   9      11.411  -0.303   0.000  0.00  0.00    +0.000 OA
ATOM    144  ND2 ASN A   9      12.023  -1.365   0.000  0.00  0.00    +0.000 NA
ENDBRANCH 141 142
ENDBRANCH  87 141
ENDBRANCH  85  87
ENDBRANCH  83  84
ENDBRANCH  81  83
ENDBRANCH  79  80
BRANCH  79 145
ATOM    145  CB  ASP A  11      13.843  -4.558   0.000  0.00  0.00    +0.000 C 
BRANCH 145 146
ATOM    146  CG  ASP A  11      13.831  -5.269   0.000  0.00  0.00    +0.000 C 
ATOM    147  OD1 ASP A  11      14.439  -5.633   0.000  0.00  0.00    +0.000 OA
ATOM    148  OD2 ASP A  11      13.213  -5.612   0.000  0.00  0.00    +0.000 OA
ENDBRANCH 145 146
ENDBRANCH  79 145
ENDBRANCH  77  79
ENDBRANCH   1  76
BRANCH   1 149
ATOM    149  CB  PHE A  12      11.993  -6.313   0.000  0.00  0.00    +0.000 C 
BRANCH 149 155
ATOM    150  CD1 PHE A  12      11.377  -7.375   0.000  0.00  0.00    +0.000 A 
ATOM    151  CE1 PHE A  12      10.765  -7.729   0.000  0.00  0.00    +0.000 A 
ATOM    152  CZ  PHE A  12      10.152  -7.375   0.000  0.00  0.00    +0.000 A 
ATOM    153  CE2 PHE A  12      10.152  -6.667   0.000  0.00  0.00    +0.000 A 
ATOM    154  CD2 PHE A  12      10.765  -6.313   0.000  0.00  0.00    +0.000 A 
ATOM    155  CG  PHE A  12      11.377  -6.667   0.000  0.00  0.00    +0.000 A 
ENDBRANCH 149 155
ENDBRANCH   1 149
TORSDOF 66
