REMARK  Name = 
REMARK  10 active torsions:
REMARK  status: ('A' for Active; 'I' for Inactive)
REMARK    1  A    between atoms: C_2  and  C_3
REMARK    2  A    between atoms: C_3  and  N_4
REMARK    3  A    between atoms: N_4  and  S_5
REMARK    4  A    between atoms: S_5  and  N_8
REMARK    5  A    between atoms: C_13  and  O_22
REMARK    6  A    between atoms: C_14  and  C_15
REMARK    7  A    between atoms: O_22  and  C_23
REMARK    8  A    between atoms: C_23  and  C_24
REMARK    9  A    between atoms: C_24  and  O_25
REMARK   10  A    between atoms: O_25  and  C_26
REMARK                            x       y       z     vdW  Elec       q    Type
REMARK                         _______ _______ _______ _____ _____    ______ ____
ROOT
ATOM      1  N   UNL     1      -2.975  -0.307   0.000  0.00  0.00    +0.000 NA
ATOM      2  C   UNL     1      -2.403   0.287   0.000  0.00  0.00    +0.000 A 
ATOM      3  N   UNL     1      -2.631   1.080   0.000  0.00  0.00    +0.000 NA
ATOM      4  C   UNL     1      -2.059   1.674   0.000  0.00  0.00    +0.000 A 
ATOM      5  N   UNL     1      -1.259   1.476   0.000  0.00  0.00    +0.000 NA
ATOM      6  C   UNL     1      -1.030   0.683   0.000  0.00  0.00    +0.000 A 
ATOM      7  C   UNL     1      -1.602   0.089   0.000  0.00  0.00    +0.000 A 
ENDROOT
BRANCH   7   8
ATOM      8  C   UNL     1      -1.373  -0.704   0.000  0.00  0.00    +0.000 A 
ATOM      9  C   UNL     1      -1.716  -2.091   0.000  0.00  0.00    +0.000 A 
ATOM     10  C   UNL     1      -1.945  -1.298   0.000  0.00  0.00    +0.000 A 
ATOM     11  C   UNL     1      -0.572  -0.902   0.000  0.00  0.00    +0.000 A 
ATOM     12  C   UNL     1      -0.343  -1.694   0.000  0.00  0.00    +0.000 A 
ATOM     13  C   UNL     1      -0.915  -2.289   0.000  0.00  0.00    +0.000 A 
ATOM     14 BR   UNL     1      -0.686  -3.082   0.000  0.00  0.00    +0.000 Br
ENDBRANCH   7   8
BRANCH   1  15
ATOM     15  S   UNL     1      -3.776  -0.109   0.000  0.00  0.00    +0.000 S 
ATOM     16  O   UNL     1      -3.974  -0.910   0.000  0.00  0.00    +0.000 OA
ATOM     17  O   UNL     1      -3.577   0.692   0.000  0.00  0.00    +0.000 OA
BRANCH  15  18
ATOM     18  N   UNL     1      -4.576   0.089   0.000  0.00  0.00    +0.000 NA
BRANCH  18  19
ATOM     19  C   UNL     1      -5.148  -0.506   0.000  0.00  0.00    +0.000 C 
BRANCH  19  21
ATOM     20  C   UNL     1      -6.521  -0.902   0.000  0.00  0.00    +0.000 C 
ATOM     21  C   UNL     1      -5.949  -0.307   0.000  0.00  0.00    +0.000 C 
ENDBRANCH  19  21
ENDBRANCH  18  19
ENDBRANCH  15  18
ENDBRANCH   1  15
BRANCH   6  22
ATOM     22  O   UNL     1      -0.229   0.485   0.000  0.00  0.00    +0.000 OA
BRANCH  22  23
ATOM     23  C   UNL     1       0.343   1.080   0.000  0.00  0.00    +0.000 C 
BRANCH  23  24
ATOM     24  C   UNL     1       1.144   0.881   0.000  0.00  0.00    +0.000 C 
BRANCH  24  25
ATOM     25  O   UNL     1       1.716   1.476   0.000  0.00  0.00    +0.000 OA
BRANCH  25  26
ATOM     26  C   UNL     1       2.517   1.278   0.000  0.00  0.00    +0.000 A 
ATOM     27  N   UNL     1       2.746   0.485   0.000  0.00  0.00    +0.000 NA
ATOM     28  N   UNL     1       3.089   1.872   0.000  0.00  0.00    +0.000 NA
ATOM     29  C   UNL     1       3.890   1.674   0.000  0.00  0.00    +0.000 A 
ATOM     30  C   UNL     1       4.119   0.881   0.000  0.00  0.00    +0.000 A 
ATOM     31  C   UNL     1       3.546   0.287   0.000  0.00  0.00    +0.000 A 
ATOM     32 BR   UNL     1       4.919   0.683   0.000  0.00  0.00    +0.000 Br
ENDBRANCH  25  26
ENDBRANCH  24  25
ENDBRANCH  23  24
ENDBRANCH  22  23
ENDBRANCH   6  22
TORSDOF 10
