REMARK  Name = 
REMARK  12 active torsions:
REMARK  status: ('A' for Active; 'I' for Inactive)
REMARK    1  A    between atoms: N_1  and  O_14
REMARK    2  A    between atoms: N_2  and  O_15
REMARK    3  A    between atoms: N_3  and  O_16
REMARK    4  A    between atoms: N_4  and  O_17
REMARK    5  A    between atoms: C_5  and  C_18
REMARK    6  A    between atoms: C_5  and  C_19
REMARK    7  A    between atoms: C_5  and  C_20
REMARK    8  A    between atoms: C_5  and  C_21
REMARK    9  A    between atoms: O_14  and  C_18
REMARK   10  A    between atoms: O_15  and  C_19
REMARK   11  A    between atoms: O_16  and  C_20
REMARK   12  A    between atoms: O_17  and  C_21
REMARK                            x       y       z     vdW  Elec       q    Type
REMARK                         _______ _______ _______ _____ _____    ______ ____
ROOT
ATOM      1  C   UNL     1       0.087  -0.079   0.000  0.00  0.00    +0.000 C 
ENDROOT
BRANCH   1   2
ATOM      2  C   UNL     1       0.087  -1.142   0.000  0.00  0.00    +0.000 C 
BRANCH   2   3
ATOM      3  O   UNL     1       1.012  -1.679   0.000  0.00  0.00    +0.000 OA
BRANCH   3   4
ATOM      4  N   UNL     1       1.012  -2.775   0.000  0.00  0.00    +0.000 N 
ATOM      5  O   UNL     1       1.967  -3.279   0.000  0.00  0.00    +0.000 OA
ATOM      6  O   UNL     1       0.087  -3.317   0.000  0.00  0.00    +0.000 OA
ENDBRANCH   3   4
ENDBRANCH   2   3
ENDBRANCH   1   2
BRANCH   1   7
ATOM      7  C   UNL     1       1.167  -0.079   0.000  0.00  0.00    +0.000 C 
BRANCH   7   8
ATOM      8  O   UNL     1       1.729   0.871   0.000  0.00  0.00    +0.000 OA
BRANCH   8   9
ATOM      9  N   UNL     1       2.779   0.883   0.000  0.00  0.00    +0.000 N 
ATOM     10  O   UNL     1       3.317   1.858   0.000  0.00  0.00    +0.000 OA
ATOM     11  O   UNL     1       3.354  -0.029   0.000  0.00  0.00    +0.000 OA
ENDBRANCH   8   9
ENDBRANCH   7   8
ENDBRANCH   1   7
BRANCH   1  12
ATOM     12  C   UNL     1       0.087   1.046   0.000  0.00  0.00    +0.000 C 
BRANCH  12  13
ATOM     13  O   UNL     1      -0.850   1.575   0.000  0.00  0.00    +0.000 OA
BRANCH  13  14
ATOM     14  N   UNL     1      -0.883   2.658   0.000  0.00  0.00    +0.000 N 
ATOM     15  O   UNL     1      -1.800   3.158   0.000  0.00  0.00    +0.000 OA
ATOM     16  O   UNL     1       0.054   3.208   0.000  0.00  0.00    +0.000 OA
ENDBRANCH  13  14
ENDBRANCH  12  13
ENDBRANCH   1  12
BRANCH   1  17
ATOM     17  C   UNL     1      -1.471  -0.079   0.000  0.00  0.00    +0.000 C 
BRANCH  17  18
ATOM     18  O   UNL     1      -2.000  -1.004   0.000  0.00  0.00    +0.000 OA
BRANCH  18  19
ATOM     19  N   UNL     1      -3.062  -1.004   0.000  0.00  0.00    +0.000 N 
ATOM     20  O   UNL     1      -3.571  -1.954   0.000  0.00  0.00    +0.000 OA
ATOM     21  O   UNL     1      -3.600  -0.079   0.000  0.00  0.00    +0.000 OA
ENDBRANCH  18  19
ENDBRANCH  17  18
ENDBRANCH   1  17
TORSDOF 12
