REMARK  Name = 
REMARK  5 active torsions:
REMARK  status: ('A' for Active; 'I' for Inactive)
REMARK    1  A    between atoms: N_1  and  O_8
REMARK    2  A    between atoms: C_2  and  C_3
REMARK    3  A    between atoms: O_8  and  C_11
REMARK    4  A    between atoms: N_9  and  C_13
REMARK    5  A    between atoms: C_11  and  C_13
REMARK                            x       y       z     vdW  Elec       q    Type
REMARK                         _______ _______ _______ _____ _____    ______ ____
ROOT
ATOM      1  C   UNL     1      -1.183   1.221   0.000  0.00  0.00    +0.000 C 
ATOM      2  O   UNL     1      -1.183   2.413   0.000  0.00  0.00    +0.000 OA
ATOM      3  N   UNL     1      -0.171   0.662   0.000  0.00  0.00    +0.000 NA
ENDROOT
BRANCH   1   4
ATOM      4  C   UNL     1      -2.263   0.583   0.000  0.00  0.00    +0.000 A 
ATOM      5  N   UNL     1      -3.296  -1.217   0.000  0.00  0.00    +0.000 NA
ATOM      6  C   UNL     1      -2.263  -0.625   0.000  0.00  0.00    +0.000 A 
ATOM      7  C   UNL     1      -3.283   1.183   0.000  0.00  0.00    +0.000 A 
ATOM      8  C   UNL     1      -4.346  -0.604   0.000  0.00  0.00    +0.000 A 
ATOM      9  C   UNL     1      -4.346   0.625   0.000  0.00  0.00    +0.000 A 
ENDBRANCH   1   4
BRANCH   3  10
ATOM     10  C   UNL     1      -0.150  -0.517   0.000  0.00  0.00    +0.000 C 
BRANCH  10  11
ATOM     11  C   UNL     1       0.929  -1.137   0.000  0.00  0.00    +0.000 C 
BRANCH  11  12
ATOM     12  O   UNL     1       1.950  -0.537   0.000  0.00  0.00    +0.000 OA
BRANCH  12  13
ATOM     13  N   UNL     1       2.992  -1.129   0.000  0.00  0.00    +0.000 N 
ATOM     14  O   UNL     1       4.017  -0.504   0.000  0.00  0.00    +0.000 OA
ATOM     15  O   UNL     1       2.992  -2.329   0.000  0.00  0.00    +0.000 OA
ENDBRANCH  12  13
ENDBRANCH  11  12
ENDBRANCH  10  11
ENDBRANCH   3  10
TORSDOF 5
