REMARK  Name = 
REMARK  3 active torsions:
REMARK  status: ('A' for Active; 'I' for Inactive)
REMARK    1  A    between atoms: S_1  and  C_7
REMARK    2  A    between atoms: C_2  and  C_11
REMARK    3  A    between atoms: C_3  and  C_8
REMARK                            x       y       z     vdW  Elec       q    Type
REMARK                         _______ _______ _______ _____ _____    ______ ____
ROOT
ATOM      1  C   UNL     1       2.354  -0.754   0.000  0.00  0.00    +0.000 C 
ATOM      2  C   UNL     1       2.163  -0.067   0.000  0.00  0.00    +0.000 C 
ATOM      3  C   UNL     1       3.079  -0.754   0.000  0.00  0.00    +0.000 C 
ATOM      4  O   UNL     1       3.292  -0.067   0.000  0.00  0.00    +0.000 OA
ATOM      5  C   UNL     1       2.725   0.321   0.000  0.00  0.00    +0.000 C 
ATOM      6  O   UNL     1       3.492  -1.317   0.000  0.00  0.00    +0.000 OA
ENDROOT
BRANCH   2   8
ATOM      7  C   UNL     1       0.292   0.983   0.000  0.00  0.00    +0.000 A 
ATOM      8  C   UNL     1       1.525   0.271   0.000  0.00  0.00    +0.000 A 
ATOM      9  C   UNL     1       0.917   1.346   0.000  0.00  0.00    +0.000 A 
ATOM     10  C   UNL     1       0.292   0.271   0.000  0.00  0.00    +0.000 A 
ATOM     11  C   UNL     1       1.525   0.983   0.000  0.00  0.00    +0.000 A 
ATOM     12  C   UNL     1       0.917  -0.067   0.000  0.00  0.00    +0.000 A 
BRANCH   7  13
ATOM     13  S   UNL     1      -0.333   1.358   0.000  0.00  0.00    +0.000 S 
ATOM     14  O   UNL     1       0.017   1.975   0.000  0.00  0.00    +0.000 OA
ATOM     15  O   UNL     1      -0.696   1.975   0.000  0.00  0.00    +0.000 OA
ATOM     16  C   UNL     1      -0.946   0.996   0.000  0.00  0.00    +0.000 C 
ENDBRANCH   7  13
ENDBRANCH   2   8
BRANCH   1  17
ATOM     17  C   UNL     1       1.754  -1.117   0.000  0.00  0.00    +0.000 A 
ATOM     18  C   UNL     1       1.754  -1.829   0.000  0.00  0.00    +0.000 A 
ATOM     19  C   UNL     1       1.142  -0.754   0.000  0.00  0.00    +0.000 A 
ATOM     20  C   UNL     1       0.512  -1.117   0.000  0.00  0.00    +0.000 A 
ATOM     21  C   UNL     1       1.142  -2.175   0.000  0.00  0.00    +0.000 A 
ATOM     22  C   UNL     1       0.512  -1.829   0.000  0.00  0.00    +0.000 A 
ENDBRANCH   1  17
TORSDOF 3
