
     RDKit          2D

 22 22  0  0  0  0  0  0  0  0999 V2000
    1.7292   -1.5792    0.0000 C   0  0  0  0  0  0  0  0  0  0  0  0
    2.3167   -0.5667    0.0000 C   0  0  0  0  0  0  0  0  0  0  0  0
   -1.7333    2.4208    0.0000 C   0  0  0  0  0  0  0  0  0  0  0  0
    0.7167   -0.9917    0.0000 O   0  0  0  0  0  0  0  0  0  0  0  0
   -2.8875    2.4333    0.0000 N   0  0  0  0  0  0  0  0  0  0  0  0
    3.4292   -0.5542    0.0000 O   0  0  0  0  0  0  0  0  0  0  0  0
   -1.1458    3.4208    0.0000 O   0  0  0  0  0  0  0  0  0  0  0  0
   -0.2958   -1.5792    0.0000 C   0  0  0  0  0  0  0  0  0  0  0  0
   -2.3125   -2.7167    0.0000 C   0  0  0  0  0  0  0  0  0  0  0  0
    1.7542    0.4458    0.0000 O   0  0  0  0  0  0  0  0  0  0  0  0
   -3.3375   -3.3042    0.0000 Cl  0  0  0  0  0  0  0  0  0  0  0  0
   -1.3083   -0.9917    0.0000 C   0  0  0  0  0  0  0  0  0  0  0  0
   -0.3208   -2.7375    0.0000 C   0  0  0  0  0  0  0  0  0  0  0  0
   -1.3083   -3.3042    0.0000 C   0  0  0  0  0  0  0  0  0  0  0  0
   -2.3000   -1.5542    0.0000 C   0  0  0  0  0  0  0  0  0  0  0  0
    1.1417   -2.5792    0.0000 C   0  0  0  0  0  0  0  0  0  0  0  0
    2.7167   -2.1750    0.0000 C   0  0  0  0  0  0  0  0  0  0  0  0
   -1.1458    1.4333    0.0000 C   0  0  0  0  0  0  0  0  0  0  0  0
   -3.4458    1.4458    0.0000 C   0  0  0  0  0  0  0  0  0  0  0  0
   -3.4458    3.4458    0.0000 C   0  0  0  0  0  0  0  0  0  0  0  0
    0.6000    0.4458    0.0000 C   0  0  0  0  0  0  0  0  0  0  0  0
    0.0042    1.4333    0.0000 C   0  0  0  0  0  0  0  0  0  0  0  0
  2  1  1  0
  3 18  1  0
  4  1  1  0
  5  3  1  0
  6  2  2  0
  7  3  2  0
  8  4  1  0
  9 14  1  0
 10  2  1  0
 11  9  1  0
 12  8  2  0
 13  8  1  0
 14 13  2  0
 15 12  1  0
 16  1  1  0
 17  1  1  0
 18 22  1  0
 19  5  1  0
 20  5  1  0
 21 10  1  0
 22 21  1  0
 15  9  2  0
M  END


> <chembl_id>
CHEMBL1697831

> <chembl_pref_name>
CLOFIBRIDE
