REMARK  Name = 
REMARK  14 active torsions:
REMARK  status: ('A' for Active; 'I' for Inactive)
REMARK    1  A    between atoms: C_1  and  O_2
REMARK    2  A    between atoms: O_2  and  C_3
REMARK    3  A    between atoms: C_3  and  C_4
REMARK    4  A    between atoms: C_4  and  C_5
REMARK    5  A    between atoms: C_5  and  C_6
REMARK    6  A    between atoms: N_12  and  C_13
REMARK    7  A    between atoms: N_12  and  C_28
REMARK    8  A    between atoms: C_13  and  C_14
REMARK    9  A    between atoms: C_16  and  C_17
REMARK   10  A    between atoms: C_22  and  C_23
REMARK   11  A    between atoms: C_31  and  C_32
REMARK   12  A    between atoms: C_40  and  O_42
REMARK   13  A    between atoms: O_42  and  C_43
REMARK   14  A    between atoms: C_45  and  C_46
REMARK                            x       y       z     vdW  Elec       q    Type
REMARK                         _______ _______ _______ _____ _____    ______ ____
ROOT
ATOM      1  C   UNL     1       8.170  -5.992   0.000  0.00  0.00    +0.000 A 
ATOM      2  C   UNL     1       8.170  -7.173   0.000  0.00  0.00    +0.000 A 
ATOM      3  N   UNL     1       9.193  -7.764   0.000  0.00  0.00    +0.000 NA
ATOM      4  C   UNL     1      10.216  -7.173   0.000  0.00  0.00    +0.000 A 
ATOM      5  N   UNL     1      11.239  -7.764   0.000  0.00  0.00    +0.000 N 
ATOM      6  N   UNL     1      10.216  -5.992   0.000  0.00  0.00    +0.000 NA
ATOM      7  C   UNL     1       9.193  -5.402   0.000  0.00  0.00    +0.000 A 
ENDROOT
BRANCH   5   8
ATOM      8  C   UNL     1      11.239  -8.945   0.000  0.00  0.00    +0.000 C 
ATOM      9  C   UNL     1      12.261  -9.536   0.000  0.00  0.00    +0.000 A 
ATOM     10  C   UNL     1      13.284  -8.945   0.000  0.00  0.00    +0.000 A 
ATOM     11  C   UNL     1      14.307  -9.536   0.000  0.00  0.00    +0.000 A 
ATOM     12  C   UNL     1      14.307 -10.717   0.000  0.00  0.00    +0.000 A 
ATOM     13  C   UNL     1      13.284 -11.307   0.000  0.00  0.00    +0.000 A 
ATOM     14  C   UNL     1      12.261 -10.717   0.000  0.00  0.00    +0.000 A 
ATOM     15  N   UNL     1      11.239 -11.307   0.000  0.00  0.00    +0.000 N 
ATOM     16  C   UNL     1      11.239 -12.488   0.000  0.00  0.00    +0.000 C 
ATOM     17  O   UNL     1      12.261 -13.079   0.000  0.00  0.00    +0.000 OA
ATOM     18  C   UNL     1      10.216 -10.717   0.000  0.00  0.00    +0.000 C 
ATOM     19  C   UNL     1      10.216  -9.536   0.000  0.00  0.00    +0.000 C 
BRANCH  11  20
ATOM     20  C   UNL     1      15.330  -8.945   0.000  0.00  0.00    +0.000 C 
ATOM     21  F   UNL     1      16.353  -8.354   0.000  0.00  0.00    +0.000 F 
ATOM     22  F   UNL     1      15.330  -7.764   0.000  0.00  0.00    +0.000 F 
ATOM     23  F   UNL     1      16.353  -9.536   0.000  0.00  0.00    +0.000 F 
ENDBRANCH  11  20
BRANCH  18  24
ATOM     24  C   UNL     1       9.193 -11.307   0.000  0.00  0.00    +0.000 C 
ATOM     25  C   UNL     1       9.193 -12.488   0.000  0.00  0.00    +0.000 C 
ENDBRANCH  18  24
BRANCH  16  26
ATOM     26  O   UNL     1      10.216 -13.079   0.000  0.00  0.00    +0.000 OA
BRANCH  26  27
ATOM     27  C   UNL     1      10.216 -14.260   0.000  0.00  0.00    +0.000 C 
ATOM     28  C   UNL     1       9.193 -14.851   0.000  0.00  0.00    +0.000 C 
ENDBRANCH  26  27
ENDBRANCH  16  26
ENDBRANCH   5   8
BRANCH   1  29
ATOM     29  O   UNL     1       7.147  -5.402   0.000  0.00  0.00    +0.000 OA
BRANCH  29  30
ATOM     30  C   UNL     1       6.124  -5.992   0.000  0.00  0.00    +0.000 C 
BRANCH  30  31
ATOM     31  C   UNL     1       5.101  -5.402   0.000  0.00  0.00    +0.000 C 
BRANCH  31  32
ATOM     32  C   UNL     1       4.078  -5.992   0.000  0.00  0.00    +0.000 C 
BRANCH  32  33
ATOM     33  C   UNL     1       3.056  -5.402   0.000  0.00  0.00    +0.000 C 
ATOM     34  O   UNL     1       3.056  -4.221   0.000  0.00  0.00    +0.000 OA
ATOM     35  O   UNL     1       2.033  -5.992   0.000  0.00  0.00    +0.000 OA
ENDBRANCH  32  33
ENDBRANCH  31  32
ENDBRANCH  30  31
ENDBRANCH  29  30
ENDBRANCH   1  29
BRANCH   5  36
ATOM     36  C   UNL     1      12.261  -7.173   0.000  0.00  0.00    +0.000 C 
BRANCH  36  37
ATOM     37  C   UNL     1      12.261  -5.992   0.000  0.00  0.00    +0.000 A 
ATOM     38  C   UNL     1      11.239  -5.402   0.000  0.00  0.00    +0.000 A 
ATOM     39  C   UNL     1      11.239  -4.221   0.000  0.00  0.00    +0.000 A 
ATOM     40  C   UNL     1      12.261  -3.630   0.000  0.00  0.00    +0.000 A 
ATOM     41  C   UNL     1      13.284  -4.221   0.000  0.00  0.00    +0.000 A 
ATOM     42  C   UNL     1      13.284  -5.402   0.000  0.00  0.00    +0.000 A 
BRANCH  39  43
ATOM     43  C   UNL     1      10.216  -3.630   0.000  0.00  0.00    +0.000 C 
ATOM     44  F   UNL     1       9.193  -4.221   0.000  0.00  0.00    +0.000 F 
ATOM     45  F   UNL     1      10.216  -2.449   0.000  0.00  0.00    +0.000 F 
ATOM     46  F   UNL     1       9.193  -3.039   0.000  0.00  0.00    +0.000 F 
ENDBRANCH  39  43
BRANCH  41  47
ATOM     47  C   UNL     1      14.307  -3.630   0.000  0.00  0.00    +0.000 C 
ATOM     48  F   UNL     1      15.330  -3.039   0.000  0.00  0.00    +0.000 F 
ATOM     49  F   UNL     1      14.307  -2.449   0.000  0.00  0.00    +0.000 F 
ATOM     50  F   UNL     1      15.330  -4.221   0.000  0.00  0.00    +0.000 F 
ENDBRANCH  41  47
ENDBRANCH  36  37
ENDBRANCH   5  36
TORSDOF 14
