MODEL 1
REMARK VINA RESULT:     -13.2      0.000      0.000
REMARK  Name = 
REMARK  3 active torsions:
REMARK  status: ('A' for Active; 'I' for Inactive)
REMARK    1  A    between atoms: C_4  and  O_15
REMARK    2  A    between atoms: C_4  and  C_17
REMARK    3  A    between atoms: O_15  and  C_20
REMARK                            x       y       z     vdW  Elec       q    Type
REMARK                         _______ _______ _______ _____ _____    ______ ____
ROOT
ATOM      1  C   UNL     1     134.963 149.939  91.315  0.00  0.00    +0.000 C 
ATOM      2  C   UNL     1     134.609 149.569  90.823  0.00  0.00    +0.000 C 
ATOM      3  C   UNL     1     133.894 148.846  89.838  0.00  0.00    +0.000 C 
ATOM      4  C   UNL     1     133.465 148.617  89.325  0.00  0.00    +0.000 C 
ATOM      5  C   UNL     1     134.813 150.619  91.422  0.00  0.00    +0.000 C 
ATOM      6  C   UNL     1     134.104 149.893  90.442  0.00  0.00    +0.000 C 
ATOM      7  C   UNL     1     133.749 149.530  89.952  0.00  0.00    +0.000 C 
ATOM      8  C   UNL     1     134.759 148.888  90.716  0.00  0.00    +0.000 C 
ATOM      9  C   UNL     1     135.467 149.619  91.696  0.00  0.00    +0.000 C 
ATOM     10  C   UNL     1     134.399 148.525  90.220  0.00  0.00    +0.000 C 
ATOM     11  C   UNL     1     133.957 150.577  90.553  0.00  0.00    +0.000 C 
ATOM     12  C   UNL     1     135.166 150.991  91.913  0.00  0.00    +0.000 C 
ATOM     13  C   UNL     1     134.312 150.940  91.044  0.00  0.00    +0.000 C 
ATOM     14  C   UNL     1     133.060 149.156  89.125  0.00  0.00    +0.000 C 
ATOM     15  C   UNL     1     133.232 149.720  89.508  0.00  0.00    +0.000 C 
ATOM     16  C   UNL     1     135.820 149.990  92.188  0.00  0.00    +0.000 C 
ATOM     17  C   UNL     1     135.671 150.669  92.295  0.00  0.00    +0.000 C 
ATOM     18  F   UNL     1     134.462 150.256  90.935  0.00  0.00    +0.000 F 
ATOM     19  O   UNL     1     136.025 151.032  92.785  0.00  0.00    +0.000 OA
ATOM     20  C   UNL     1     135.115 149.256  91.210  0.00  0.00    +0.000 C 
ATOM     21  C   UNL     1     134.048 148.167  89.736  0.00  0.00    +0.000 C 
ATOM     22  O   UNL     1     135.264 148.568  91.098  0.00  0.00    +0.000 OA
ATOM     23  C   UNL     1     134.168 151.620  91.157  0.00  0.00    +0.000 C 
ENDROOT
BRANCH   4  24
ATOM     24  C   UNL     1     133.621 147.934  89.223  0.00  0.00    +0.000 C 
ATOM     25  O   UNL     1     133.328 147.436  89.629  0.00  0.00    +0.000 OA
ATOM     26  C   UNL     1     134.075 147.746  88.709  0.00  0.00    +0.000 C 
ENDBRANCH   4  24
BRANCH   4  27
ATOM     27  O   UNL     1     133.112 148.246  88.833  0.00  0.00    +0.000 OA
BRANCH  27  28
ATOM     28  C   UNL     1     132.537 148.518  88.526  0.00  0.00    +0.000 C 
ATOM     29  O   UNL     1     131.921 148.498  88.868  0.00  0.00    +0.000 OA
ATOM     30  C   UNL     1     132.580 148.805  87.883  0.00  0.00    +0.000 C 
ENDBRANCH  27  28
ENDBRANCH   4  27
TORSDOF 3
ENDMDL
MODEL 2
REMARK VINA RESULT:     -12.9     65.895     66.634
REMARK  Name = 
REMARK  3 active torsions:
REMARK  status: ('A' for Active; 'I' for Inactive)
REMARK    1  A    between atoms: C_4  and  O_15
REMARK    2  A    between atoms: C_4  and  C_17
REMARK    3  A    between atoms: O_15  and  C_20
REMARK                            x       y       z     vdW  Elec       q    Type
REMARK                         _______ _______ _______ _____ _____    ______ ____
ROOT
ATOM      1  C   UNL     1     110.610 123.910 145.738  0.00  0.00    +0.000 C 
ATOM      2  C   UNL     1     110.645 123.692 146.413  0.00  0.00    +0.000 C 
ATOM      3  C   UNL     1     110.723 123.239 147.752  0.00  0.00    +0.000 C 
ATOM      4  C   UNL     1     110.815 122.887 148.357  0.00  0.00    +0.000 C 
ATOM      5  C   UNL     1     110.815 123.484 145.216  0.00  0.00    +0.000 C 
ATOM      6  C   UNL     1     110.889 123.039 146.553  0.00  0.00    +0.000 C 
ATOM      7  C   UNL     1     110.927 122.816 147.222  0.00  0.00    +0.000 C 
ATOM      8  C   UNL     1     110.440 124.119 146.935  0.00  0.00    +0.000 C 
ATOM      9  C   UNL     1     110.367 124.561 145.595  0.00  0.00    +0.000 C 
ATOM     10  C   UNL     1     110.479 123.891 147.609  0.00  0.00    +0.000 C 
ATOM     11  C   UNL     1     111.095 122.613 146.025  0.00  0.00    +0.000 C 
ATOM     12  C   UNL     1     110.780 123.701 144.541  0.00  0.00    +0.000 C 
ATOM     13  C   UNL     1     111.057 122.836 145.356  0.00  0.00    +0.000 C 
ATOM     14  C   UNL     1     111.074 122.252 148.200  0.00  0.00    +0.000 C 
ATOM     15  C   UNL     1     111.144 122.204 147.503  0.00  0.00    +0.000 C 
ATOM     16  C   UNL     1     110.332 124.779 144.920  0.00  0.00    +0.000 C 
ATOM     17  C   UNL     1     110.537 124.353 144.398  0.00  0.00    +0.000 C 
ATOM     18  F   UNL     1     110.851 123.265 145.882  0.00  0.00    +0.000 F 
ATOM     19  O   UNL     1     110.500 124.575 143.730  0.00  0.00    +0.000 OA
ATOM     20  C   UNL     1     110.404 124.341 146.260  0.00  0.00    +0.000 C 
ATOM     21  C   UNL     1     110.516 123.670 148.268  0.00  0.00    +0.000 C 
ATOM     22  O   UNL     1     110.197 124.770 146.791  0.00  0.00    +0.000 OA
ATOM     23  C   UNL     1     111.260 122.416 144.829  0.00  0.00    +0.000 C 
ENDROOT
BRANCH   4  24
ATOM     24  C   UNL     1     110.608 123.321 148.877  0.00  0.00    +0.000 C 
ATOM     25  O   UNL     1     111.055 123.796 149.145  0.00  0.00    +0.000 OA
ATOM     26  C   UNL     1     109.945 123.278 149.132  0.00  0.00    +0.000 C 
ENDBRANCH   4  24
BRANCH   4  27
ATOM     27  O   UNL     1     110.850 122.669 149.032  0.00  0.00    +0.000 OA
BRANCH  27  28
ATOM     28  C   UNL     1     111.189 122.071 149.197  0.00  0.00    +0.000 C 
ATOM     29  O   UNL     1     111.892 122.073 149.238  0.00  0.00    +0.000 OA
ATOM     30  C   UNL     1     110.824 121.479 149.320  0.00  0.00    +0.000 C 
ENDBRANCH  27  28
ENDBRANCH   4  27
TORSDOF 3
ENDMDL
MODEL 3
REMARK VINA RESULT:     -12.3     83.117     83.485
REMARK  Name = 
REMARK  3 active torsions:
REMARK  status: ('A' for Active; 'I' for Inactive)
REMARK    1  A    between atoms: C_4  and  O_15
REMARK    2  A    between atoms: C_4  and  C_17
REMARK    3  A    between atoms: O_15  and  C_20
REMARK                            x       y       z     vdW  Elec       q    Type
REMARK                         _______ _______ _______ _____ _____    ______ ____
ROOT
ATOM      1  C   UNL     1     159.890 122.370 164.815  0.00  0.00    +0.000 C 
ATOM      2  C   UNL     1     159.253 122.189 165.072  0.00  0.00    +0.000 C 
ATOM      3  C   UNL     1     157.981 121.848 165.591  0.00  0.00    +0.000 C 
ATOM      4  C   UNL     1     157.343 121.822 165.895  0.00  0.00    +0.000 C 
ATOM      5  C   UNL     1     160.132 123.026 164.895  0.00  0.00    +0.000 C 
ATOM      6  C   UNL     1     158.865 122.679 165.410  0.00  0.00    +0.000 C 
ATOM      7  C   UNL     1     158.231 122.506 165.667  0.00  0.00    +0.000 C 
ATOM      8  C   UNL     1     159.011 121.532 164.992  0.00  0.00    +0.000 C 
ATOM      9  C   UNL     1     160.280 121.883 164.477  0.00  0.00    +0.000 C 
ATOM     10  C   UNL     1     158.371 121.360 165.253  0.00  0.00    +0.000 C 
ATOM     11  C   UNL     1     159.112 123.339 165.488  0.00  0.00    +0.000 C 
ATOM     12  C   UNL     1     160.768 123.208 164.639  0.00  0.00    +0.000 C 
ATOM     13  C   UNL     1     159.745 123.513 165.231  0.00  0.00    +0.000 C 
ATOM     14  C   UNL     1     157.203 122.459 166.156  0.00  0.00    +0.000 C 
ATOM     15  C   UNL     1     157.746 122.883 166.019  0.00  0.00    +0.000 C 
ATOM     16  C   UNL     1     160.916 122.064 164.221  0.00  0.00    +0.000 C 
ATOM     17  C   UNL     1     161.158 122.721 164.301  0.00  0.00    +0.000 C 
ATOM     18  F   UNL     1     159.502 122.852 165.150  0.00  0.00    +0.000 F 
ATOM     19  O   UNL     1     161.791 122.894 164.043  0.00  0.00    +0.000 OA
ATOM     20  C   UNL     1     159.650 121.709 164.733  0.00  0.00    +0.000 C 
ATOM     21  C   UNL     1     157.746 121.190 165.507  0.00  0.00    +0.000 C 
ATOM     22  O   UNL     1     159.402 121.045 164.653  0.00  0.00    +0.000 OA
ATOM     23  C   UNL     1     159.994 124.167 165.307  0.00  0.00    +0.000 C 
ENDROOT
BRANCH   4  24
ATOM     24  C   UNL     1     157.107 121.160 165.810  0.00  0.00    +0.000 C 
ATOM     25  O   UNL     1     157.294 120.653 166.265  0.00  0.00    +0.000 OA
ATOM     26  C   UNL     1     156.679 121.002 165.265  0.00  0.00    +0.000 C 
ENDBRANCH   4  24
BRANCH   4  27
ATOM     27  O   UNL     1     156.707 121.641 166.151  0.00  0.00    +0.000 OA
BRANCH  27  28
ATOM     28  C   UNL     1     156.351 122.085 166.570  0.00  0.00    +0.000 C 
ATOM     29  O   UNL     1     156.542 122.150 167.245  0.00  0.00    +0.000 OA
ATOM     30  C   UNL     1     155.811 122.459 166.313  0.00  0.00    +0.000 C 
ENDBRANCH  27  28
ENDBRANCH   4  27
TORSDOF 3
ENDMDL
MODEL 4
REMARK VINA RESULT:     -12.2      1.428      4.380
REMARK  Name = 
REMARK  3 active torsions:
REMARK  status: ('A' for Active; 'I' for Inactive)
REMARK    1  A    between atoms: C_4  and  O_15
REMARK    2  A    between atoms: C_4  and  C_17
REMARK    3  A    between atoms: O_15  and  C_20
REMARK                            x       y       z     vdW  Elec       q    Type
REMARK                         _______ _______ _______ _____ _____    ______ ____
ROOT
ATOM      1  C   UNL     1     134.644 150.369  91.154  0.00  0.00    +0.000 C 
ATOM      2  C   UNL     1     135.108 150.768  91.513  0.00  0.00    +0.000 C 
ATOM      3  C   UNL     1     136.027 151.581  92.220  0.00  0.00    +0.000 C 
ATOM      4  C   UNL     1     136.421 152.099  92.496  0.00  0.00    +0.000 C 
ATOM      5  C   UNL     1     134.197 150.667  90.699  0.00  0.00    +0.000 C 
ATOM      6  C   UNL     1     135.116 151.471  91.407  0.00  0.00    +0.000 C 
ATOM      7  C   UNL     1     135.575 151.874  91.760  0.00  0.00    +0.000 C 
ATOM      8  C   UNL     1     135.556 150.470  91.969  0.00  0.00    +0.000 C 
ATOM      9  C   UNL     1     134.634 149.668  91.259  0.00  0.00    +0.000 C 
ATOM     10  C   UNL     1     136.018 150.879  92.325  0.00  0.00    +0.000 C 
ATOM     11  C   UNL     1     134.664 151.767  90.947  0.00  0.00    +0.000 C 
ATOM     12  C   UNL     1     133.733 150.269  90.340  0.00  0.00    +0.000 C 
ATOM     13  C   UNL     1     134.205 151.365  90.593  0.00  0.00    +0.000 C 
ATOM     14  C   UNL     1     136.212 152.706  92.207  0.00  0.00    +0.000 C 
ATOM     15  C   UNL     1     135.692 152.572  91.754  0.00  0.00    +0.000 C 
ATOM     16  C   UNL     1     134.170 149.269  90.900  0.00  0.00    +0.000 C 
ATOM     17  C   UNL     1     133.723 149.566  90.444  0.00  0.00    +0.000 C 
ATOM     18  F   UNL     1     134.655 151.065  91.052  0.00  0.00    +0.000 F 
ATOM     19  O   UNL     1     133.264 149.165  90.091  0.00  0.00    +0.000 OA
ATOM     20  C   UNL     1     135.092 150.066  91.612  0.00  0.00    +0.000 C 
ATOM     21  C   UNL     1     136.471 151.276  92.674  0.00  0.00    +0.000 C 
ATOM     22  O   UNL     1     135.546 149.768  92.074  0.00  0.00    +0.000 OA
ATOM     23  C   UNL     1     133.755 151.656  90.136  0.00  0.00    +0.000 C 
ENDROOT
BRANCH   4  24
ATOM     24  C   UNL     1     136.867 151.792  92.952  0.00  0.00    +0.000 C 
ATOM     25  O   UNL     1     137.477 151.518  92.725  0.00  0.00    +0.000 OA
ATOM     26  C   UNL     1     136.702 151.760  93.643  0.00  0.00    +0.000 C 
ENDBRANCH   4  24
BRANCH   4  27
ATOM     27  O   UNL     1     136.886 152.498  92.855  0.00  0.00    +0.000 OA
BRANCH  27  28
ATOM     28  C   UNL     1     136.974 153.180  92.690  0.00  0.00    +0.000 C 
ATOM     29  O   UNL     1     137.373 153.352  92.136  0.00  0.00    +0.000 OA
ATOM     30  C   UNL     1     136.664 153.681  93.078  0.00  0.00    +0.000 C 
ENDBRANCH  27  28
ENDBRANCH   4  27
TORSDOF 3
ENDMDL
MODEL 5
REMARK VINA RESULT:     -12.0      1.556      2.472
REMARK  Name = 
REMARK  3 active torsions:
REMARK  status: ('A' for Active; 'I' for Inactive)
REMARK    1  A    between atoms: C_4  and  O_15
REMARK    2  A    between atoms: C_4  and  C_17
REMARK    3  A    between atoms: O_15  and  C_20
REMARK                            x       y       z     vdW  Elec       q    Type
REMARK                         _______ _______ _______ _____ _____    ______ ____
ROOT
ATOM      1  C   UNL     1     133.359 149.526  89.545  0.00  0.00    +0.000 C 
ATOM      2  C   UNL     1     133.188 148.878  89.313  0.00  0.00    +0.000 C 
ATOM      3  C   UNL     1     132.838 147.592  88.832  0.00  0.00    +0.000 C 
ATOM      4  C   UNL     1     132.611 147.028  88.474  0.00  0.00    +0.000 C 
ATOM      5  C   UNL     1     133.212 150.093  89.155  0.00  0.00    +0.000 C 
ATOM      6  C   UNL     1     132.867 148.810  88.682  0.00  0.00    +0.000 C 
ATOM      7  C   UNL     1     132.694 148.168  88.445  0.00  0.00    +0.000 C 
ATOM      8  C   UNL     1     133.334 148.310  89.704  0.00  0.00    +0.000 C 
ATOM      9  C   UNL     1     133.679 149.597  90.174  0.00  0.00    +0.000 C 
ATOM     10  C   UNL     1     133.158 147.663  89.462  0.00  0.00    +0.000 C 
ATOM     11  C   UNL     1     132.721 149.383  88.292  0.00  0.00    +0.000 C 
ATOM     12  C   UNL     1     133.383 150.742  89.386  0.00  0.00    +0.000 C 
ATOM     13  C   UNL     1     132.894 150.025  88.528  0.00  0.00    +0.000 C 
ATOM     14  C   UNL     1     132.329 147.254  87.871  0.00  0.00    +0.000 C 
ATOM     15  C   UNL     1     132.378 147.955  87.849  0.00  0.00    +0.000 C 
ATOM     16  C   UNL     1     133.850 150.246  90.406  0.00  0.00    +0.000 C 
ATOM     17  C   UNL     1     133.704 150.813  90.016  0.00  0.00    +0.000 C 
ATOM     18  F   UNL     1     133.041 149.454  88.921  0.00  0.00    +0.000 F 
ATOM     19  O   UNL     1     133.876 151.455  90.251  0.00  0.00    +0.000 OA
ATOM     20  C   UNL     1     133.508 148.958  89.941  0.00  0.00    +0.000 C 
ATOM     21  C   UNL     1     132.988 147.030  89.229  0.00  0.00    +0.000 C 
ATOM     22  O   UNL     1     133.655 148.381  90.333  0.00  0.00    +0.000 OA
ATOM     23  C   UNL     1     132.750 150.597  88.143  0.00  0.00    +0.000 C 
ENDROOT
BRANCH   4  24
ATOM     24  C   UNL     1     132.761 146.462  88.872  0.00  0.00    +0.000 C 
ATOM     25  O   UNL     1     133.399 146.161  88.839  0.00  0.00    +0.000 OA
ATOM     26  C   UNL     1     132.268 146.194  89.309  0.00  0.00    +0.000 C 
ENDBRANCH   4  24
BRANCH   4  27
ATOM     27  O   UNL     1     132.439 146.379  88.242  0.00  0.00    +0.000 OA
BRANCH  27  28
ATOM     28  C   UNL     1     132.222 146.283  87.576  0.00  0.00    +0.000 C 
ATOM     29  O   UNL     1     132.697 146.261  87.058  0.00  0.00    +0.000 OA
ATOM     30  C   UNL     1     131.534 146.212  87.435  0.00  0.00    +0.000 C 
ENDBRANCH  27  28
ENDBRANCH   4  27
TORSDOF 3
ENDMDL
MODEL 6
REMARK VINA RESULT:     -11.9      1.950      3.783
REMARK  Name = 
REMARK  3 active torsions:
REMARK  status: ('A' for Active; 'I' for Inactive)
REMARK    1  A    between atoms: C_4  and  O_15
REMARK    2  A    between atoms: C_4  and  C_17
REMARK    3  A    between atoms: O_15  and  C_20
REMARK                            x       y       z     vdW  Elec       q    Type
REMARK                         _______ _______ _______ _____ _____    ______ ____
ROOT
ATOM      1  C   UNL     1     134.903 150.522  91.297  0.00  0.00    +0.000 C 
ATOM      2  C   UNL     1     134.702 151.160  91.058  0.00  0.00    +0.000 C 
ATOM      3  C   UNL     1     134.315 152.441  90.596  0.00  0.00    +0.000 C 
ATOM      4  C   UNL     1     134.219 153.129  90.470  0.00  0.00    +0.000 C 
ATOM      5  C   UNL     1     135.374 150.470  91.817  0.00  0.00    +0.000 C 
ATOM      6  C   UNL     1     134.984 151.743  91.351  0.00  0.00    +0.000 C 
ATOM      7  C   UNL     1     134.789 152.380  91.119  0.00  0.00    +0.000 C 
ATOM      8  C   UNL     1     134.230 151.212  90.537  0.00  0.00    +0.000 C 
ATOM      9  C   UNL     1     134.624 149.939  91.007  0.00  0.00    +0.000 C 
ATOM     10  C   UNL     1     134.036 151.856  90.305  0.00  0.00    +0.000 C 
ATOM     11  C   UNL     1     135.459 151.687  91.875  0.00  0.00    +0.000 C 
ATOM     12  C   UNL     1     135.576 149.833  92.057  0.00  0.00    +0.000 C 
ATOM     13  C   UNL     1     135.654 151.050  92.108  0.00  0.00    +0.000 C 
ATOM     14  C   UNL     1     134.630 153.490  90.912  0.00  0.00    +0.000 C 
ATOM     15  C   UNL     1     134.983 153.033  91.313  0.00  0.00    +0.000 C 
ATOM     16  C   UNL     1     134.825 149.301  91.245  0.00  0.00    +0.000 C 
ATOM     17  C   UNL     1     135.296 149.249  91.766  0.00  0.00    +0.000 C 
ATOM     18  F   UNL     1     135.179 151.102  91.584  0.00  0.00    +0.000 F 
ATOM     19  O   UNL     1     135.491 148.612  91.999  0.00  0.00    +0.000 OA
ATOM     20  C   UNL     1     134.429 150.571  90.774  0.00  0.00    +0.000 C 
ATOM     21  C   UNL     1     133.844 152.485  90.075  0.00  0.00    +0.000 C 
ATOM     22  O   UNL     1     133.951 150.628  90.247  0.00  0.00    +0.000 OA
ATOM     23  C   UNL     1     136.125 150.989  92.628  0.00  0.00    +0.000 C 
ENDROOT
BRANCH   4  24
ATOM     24  C   UNL     1     133.744 153.174  89.946  0.00  0.00    +0.000 C 
ATOM     25  O   UNL     1     133.053 153.162  90.089  0.00  0.00    +0.000 OA
ATOM     26  C   UNL     1     133.963 153.231  89.272  0.00  0.00    +0.000 C 
ENDBRANCH   4  24
BRANCH   4  27
ATOM     27  O   UNL     1     134.018 153.767  90.231  0.00  0.00    +0.000 OA
BRANCH  27  28
ATOM     28  C   UNL     1     134.196 154.353  90.583  0.00  0.00    +0.000 C 
ATOM     29  O   UNL     1     133.838 154.529  91.163  0.00  0.00    +0.000 OA
ATOM     30  C   UNL     1     134.728 154.757  90.355  0.00  0.00    +0.000 C 
ENDBRANCH  27  28
ENDBRANCH   4  27
TORSDOF 3
ENDMDL
MODEL 7
REMARK VINA RESULT:     -11.8      3.479      5.487
REMARK  Name = 
REMARK  3 active torsions:
REMARK  status: ('A' for Active; 'I' for Inactive)
REMARK    1  A    between atoms: C_4  and  O_15
REMARK    2  A    between atoms: C_4  and  C_17
REMARK    3  A    between atoms: O_15  and  C_20
REMARK                            x       y       z     vdW  Elec       q    Type
REMARK                         _______ _______ _______ _____ _____    ______ ____
ROOT
ATOM      1  C   UNL     1     131.919 147.196  87.644  0.00  0.00    +0.000 C 
ATOM      2  C   UNL     1     131.645 146.876  87.073  0.00  0.00    +0.000 C 
ATOM      3  C   UNL     1     131.094 146.255  85.926  0.00  0.00    +0.000 C 
ATOM      4  C   UNL     1     130.800 146.087  85.306  0.00  0.00    +0.000 C 
ATOM      5  C   UNL     1     131.952 147.899  87.675  0.00  0.00    +0.000 C 
ATOM      6  C   UNL     1     131.405 147.274  86.535  0.00  0.00    +0.000 C 
ATOM      7  C   UNL     1     131.131 146.961  85.965  0.00  0.00    +0.000 C 
ATOM      8  C   UNL     1     131.611 146.172  87.042  0.00  0.00    +0.000 C 
ATOM      9  C   UNL     1     132.159 146.802  88.183  0.00  0.00    +0.000 C 
ATOM     10  C   UNL     1     131.334 145.860  86.465  0.00  0.00    +0.000 C 
ATOM     11  C   UNL     1     131.440 147.981  86.570  0.00  0.00    +0.000 C 
ATOM     12  C   UNL     1     132.226 148.220  88.246  0.00  0.00    +0.000 C 
ATOM     13  C   UNL     1     131.714 148.293  87.141  0.00  0.00    +0.000 C 
ATOM     14  C   UNL     1     130.658 146.686  84.965  0.00  0.00    +0.000 C 
ATOM     15  C   UNL     1     130.859 147.226  85.367  0.00  0.00    +0.000 C 
ATOM     16  C   UNL     1     132.433 147.123  88.754  0.00  0.00    +0.000 C 
ATOM     17  C   UNL     1     132.467 147.825  88.785  0.00  0.00    +0.000 C 
ATOM     18  F   UNL     1     131.680 147.586  87.109  0.00  0.00    +0.000 F 
ATOM     19  O   UNL     1     132.740 148.138  89.354  0.00  0.00    +0.000 OA
ATOM     20  C   UNL     1     131.887 146.489  87.617  0.00  0.00    +0.000 C 
ATOM     21  C   UNL     1     131.064 145.552  85.902  0.00  0.00    +0.000 C 
ATOM     22  O   UNL     1     131.852 145.778  87.581  0.00  0.00    +0.000 OA
ATOM     23  C   UNL     1     131.750 148.996  87.179  0.00  0.00    +0.000 C 
ENDROOT
BRANCH   4  24
ATOM     24  C   UNL     1     130.770 145.380  85.281  0.00  0.00    +0.000 C 
ATOM     25  O   UNL     1     130.231 145.036  85.580  0.00  0.00    +0.000 OA
ATOM     26  C   UNL     1     131.285 145.014  84.956  0.00  0.00    +0.000 C 
ENDBRANCH   4  24
BRANCH   4  27
ATOM     27  O   UNL     1     130.526 145.767  84.735  0.00  0.00    +0.000 OA
BRANCH  27  28
ATOM     28  C   UNL     1     130.260 146.149  84.203  0.00  0.00    +0.000 C 
ATOM     29  O   UNL     1     130.695 146.414  83.718  0.00  0.00    +0.000 OA
ATOM     30  C   UNL     1     129.565 146.263  84.162  0.00  0.00    +0.000 C 
ENDBRANCH  27  28
ENDBRANCH   4  27
TORSDOF 3
ENDMDL
MODEL 8
REMARK VINA RESULT:     -11.7     97.093     97.933
REMARK  Name = 
REMARK  3 active torsions:
REMARK  status: ('A' for Active; 'I' for Inactive)
REMARK    1  A    between atoms: C_4  and  O_15
REMARK    2  A    between atoms: C_4  and  C_17
REMARK    3  A    between atoms: O_15  and  C_20
REMARK                            x       y       z     vdW  Elec       q    Type
REMARK                         _______ _______ _______ _____ _____    ______ ____
ROOT
ATOM      1  C   UNL     1     162.049 132.977 182.346  0.00  0.00    +0.000 C 
ATOM      2  C   UNL     1     162.105 132.271 182.399  0.00  0.00    +0.000 C 
ATOM      3  C   UNL     1     162.200 130.864 182.516  0.00  0.00    +0.000 C 
ATOM      4  C   UNL     1     162.120 130.175 182.653  0.00  0.00    +0.000 C 
ATOM      5  C   UNL     1     161.508 133.314 182.645  0.00  0.00    +0.000 C 
ATOM      6  C   UNL     1     161.608 131.911 182.758  0.00  0.00    +0.000 C 
ATOM      7  C   UNL     1     161.659 131.209 182.814  0.00  0.00    +0.000 C 
ATOM      8  C   UNL     1     162.647 131.934 182.100  0.00  0.00    +0.000 C 
ATOM      9  C   UNL     1     162.543 133.340 181.989  0.00  0.00    +0.000 C 
ATOM     10  C   UNL     1     162.695 131.227 182.159  0.00  0.00    +0.000 C 
ATOM     11  C   UNL     1     161.065 132.253 183.058  0.00  0.00    +0.000 C 
ATOM     12  C   UNL     1     161.450 134.019 182.593  0.00  0.00    +0.000 C 
ATOM     13  C   UNL     1     161.015 132.955 183.001  0.00  0.00    +0.000 C 
ATOM     14  C   UNL     1     161.532 130.098 183.033  0.00  0.00    +0.000 C 
ATOM     15  C   UNL     1     161.246 130.731 183.135  0.00  0.00    +0.000 C 
ATOM     16  C   UNL     1     162.487 134.045 181.936  0.00  0.00    +0.000 C 
ATOM     17  C   UNL     1     161.945 134.382 182.235  0.00  0.00    +0.000 C 
ATOM     18  F   UNL     1     161.560 132.616 182.700  0.00  0.00    +0.000 F 
ATOM     19  O   UNL     1     161.895 135.083 182.179  0.00  0.00    +0.000 OA
ATOM     20  C   UNL     1     162.595 132.642 182.044  0.00  0.00    +0.000 C 
ATOM     21  C   UNL     1     162.744 130.534 182.215  0.00  0.00    +0.000 C 
ATOM     22  O   UNL     1     163.141 132.298 181.743  0.00  0.00    +0.000 OA
ATOM     23  C   UNL     1     160.476 133.299 183.298  0.00  0.00    +0.000 C 
ENDROOT
BRANCH   4  24
ATOM     24  C   UNL     1     162.667 129.844 182.350  0.00  0.00    +0.000 C 
ATOM     25  O   UNL     1     162.637 129.654 181.671  0.00  0.00    +0.000 OA
ATOM     26  C   UNL     1     163.250 129.700 182.730  0.00  0.00    +0.000 C 
ENDBRANCH   4  24
BRANCH   4  27
ATOM     27  O   UNL     1     162.176 129.469 182.707  0.00  0.00    +0.000 OA
BRANCH  27  28
ATOM     28  C   UNL     1     161.702 129.100 183.079  0.00  0.00    +0.000 C 
ATOM     29  O   UNL     1     161.762 129.070 183.779  0.00  0.00    +0.000 OA
ATOM     30  C   UNL     1     161.175 128.766 182.749  0.00  0.00    +0.000 C 
ENDBRANCH  27  28
ENDBRANCH   4  27
TORSDOF 3
ENDMDL
MODEL 9
REMARK VINA RESULT:     -11.6      1.652      2.311
REMARK  Name = 
REMARK  3 active torsions:
REMARK  status: ('A' for Active; 'I' for Inactive)
REMARK    1  A    between atoms: C_4  and  O_15
REMARK    2  A    between atoms: C_4  and  C_17
REMARK    3  A    between atoms: O_15  and  C_20
REMARK                            x       y       z     vdW  Elec       q    Type
REMARK                         _______ _______ _______ _____ _____    ______ ____
ROOT
ATOM      1  C   UNL     1     134.379 149.861  90.716  0.00  0.00    +0.000 C 
ATOM      2  C   UNL     1     134.029 150.166  90.180  0.00  0.00    +0.000 C 
ATOM      3  C   UNL     1     133.336 150.794  89.117  0.00  0.00    +0.000 C 
ATOM      4  C   UNL     1     133.039 151.234  88.650  0.00  0.00    +0.000 C 
ATOM      5  C   UNL     1     134.718 150.256  91.190  0.00  0.00    +0.000 C 
ATOM      6  C   UNL     1     134.025 150.875  90.128  0.00  0.00    +0.000 C 
ATOM      7  C   UNL     1     133.679 151.185  89.597  0.00  0.00    +0.000 C 
ATOM      8  C   UNL     1     133.690 149.770  89.705  0.00  0.00    +0.000 C 
ATOM      9  C   UNL     1     134.385 149.154  90.771  0.00  0.00    +0.000 C 
ATOM     10  C   UNL     1     133.341 150.085  89.171  0.00  0.00    +0.000 C 
ATOM     11  C   UNL     1     134.368 151.270  90.607  0.00  0.00    +0.000 C 
ATOM     12  C   UNL     1     135.069 149.952  91.727  0.00  0.00    +0.000 C 
ATOM     13  C   UNL     1     134.714 150.960  91.138  0.00  0.00    +0.000 C 
ATOM     14  C   UNL     1     133.199 151.892  88.843  0.00  0.00    +0.000 C 
ATOM     15  C   UNL     1     133.592 151.866  89.424  0.00  0.00    +0.000 C 
ATOM     16  C   UNL     1     134.735 148.848  91.307  0.00  0.00    +0.000 C 
ATOM     17  C   UNL     1     135.074 149.244  91.781  0.00  0.00    +0.000 C 
ATOM     18  F   UNL     1     134.373 150.562  90.661  0.00  0.00    +0.000 F 
ATOM     19  O   UNL     1     135.420 148.935  92.312  0.00  0.00    +0.000 OA
ATOM     20  C   UNL     1     134.040 149.459  90.242  0.00  0.00    +0.000 C 
ATOM     21  C   UNL     1     132.999 150.392  88.647  0.00  0.00    +0.000 C 
ATOM     22  O   UNL     1     133.695 149.062  89.760  0.00  0.00    +0.000 OA
ATOM     23  C   UNL     1     135.055 151.349  91.616  0.00  0.00    +0.000 C 
ENDROOT
BRANCH   4  24
ATOM     24  C   UNL     1     132.701 150.830  88.178  0.00  0.00    +0.000 C 
ATOM     25  O   UNL     1     132.043 150.607  88.305  0.00  0.00    +0.000 OA
ATOM     26  C   UNL     1     133.024 150.646  87.572  0.00  0.00    +0.000 C 
ENDBRANCH   4  24
BRANCH   4  27
ATOM     27  O   UNL     1     132.689 151.540  88.114  0.00  0.00    +0.000 OA
BRANCH  27  28
ATOM     28  C   UNL     1     132.672 152.243  88.052  0.00  0.00    +0.000 C 
ATOM     29  O   UNL     1     132.219 152.613  88.444  0.00  0.00    +0.000 OA
ATOM     30  C   UNL     1     133.107 152.570  87.602  0.00  0.00    +0.000 C 
ENDBRANCH  27  28
ENDBRANCH   4  27
TORSDOF 3
ENDMDL
MODEL 10
REMARK VINA RESULT:     -11.4      2.293      5.096
REMARK  Name = 
REMARK  3 active torsions:
REMARK  status: ('A' for Active; 'I' for Inactive)
REMARK    1  A    between atoms: C_4  and  O_15
REMARK    2  A    between atoms: C_4  and  C_17
REMARK    3  A    between atoms: O_15  and  C_20
REMARK                            x       y       z     vdW  Elec       q    Type
REMARK                         _______ _______ _______ _____ _____    ______ ____
ROOT
ATOM      1  C   UNL     1     131.666 146.634  87.359  0.00  0.00    +0.000 C 
ATOM      2  C   UNL     1     131.968 147.174  87.707  0.00  0.00    +0.000 C 
ATOM      3  C   UNL     1     132.567 148.241  88.420  0.00  0.00    +0.000 C 
ATOM      4  C   UNL     1     132.841 148.685  88.896  0.00  0.00    +0.000 C 
ATOM      5  C   UNL     1     131.446 146.064  87.709  0.00  0.00    +0.000 C 
ATOM      6  C   UNL     1     132.044 147.131  88.413  0.00  0.00    +0.000 C 
ATOM      7  C   UNL     1     132.343 147.664  88.765  0.00  0.00    +0.000 C 
ATOM      8  C   UNL     1     132.188 147.745  87.357  0.00  0.00    +0.000 C 
ATOM      9  C   UNL     1     131.588 146.675  86.655  0.00  0.00    +0.000 C 
ATOM     10  C   UNL     1     132.489 148.281  87.716  0.00  0.00    +0.000 C 
ATOM     11  C   UNL     1     131.822 146.555  88.762  0.00  0.00    +0.000 C 
ATOM     12  C   UNL     1     131.145 145.524  87.361  0.00  0.00    +0.000 C 
ATOM     13  C   UNL     1     131.523 146.022  88.409  0.00  0.00    +0.000 C 
ATOM     14  C   UNL     1     132.786 148.384  89.530  0.00  0.00    +0.000 C 
ATOM     15  C   UNL     1     132.481 147.756  89.454  0.00  0.00    +0.000 C 
ATOM     16  C   UNL     1     131.287 146.135  86.307  0.00  0.00    +0.000 C 
ATOM     17  C   UNL     1     131.067 145.565  86.657  0.00  0.00    +0.000 C 
ATOM     18  F   UNL     1     131.744 146.596  88.057  0.00  0.00    +0.000 F 
ATOM     19  O   UNL     1     130.768 145.032  86.305  0.00  0.00    +0.000 OA
ATOM     20  C   UNL     1     131.886 147.206  87.003  0.00  0.00    +0.000 C 
ATOM     21  C   UNL     1     132.784 148.808  88.064  0.00  0.00    +0.000 C 
ATOM     22  O   UNL     1     132.109 147.785  86.653  0.00  0.00    +0.000 OA
ATOM     23  C   UNL     1     131.301 145.448  88.752  0.00  0.00    +0.000 C 
ENDROOT
BRANCH   4  24
ATOM     24  C   UNL     1     133.059 149.255  88.538  0.00  0.00    +0.000 C 
ATOM     25  O   UNL     1     133.693 149.260  88.227  0.00  0.00    +0.000 OA
ATOM     26  C   UNL     1     132.639 149.827  88.489  0.00  0.00    +0.000 C 
ENDBRANCH   4  24
BRANCH   4  27
ATOM     27  O   UNL     1     133.143 149.225  89.245  0.00  0.00    +0.000 OA
BRANCH  27  28
ATOM     28  C   UNL     1     133.280 149.173  89.936  0.00  0.00    +0.000 C 
ATOM     29  O   UNL     1     132.769 149.312  90.400  0.00  0.00    +0.000 OA
ATOM     30  C   UNL     1     133.922 148.981  90.157  0.00  0.00    +0.000 C 
ENDBRANCH  27  28
ENDBRANCH   4  27
TORSDOF 3
ENDMDL
MODEL 11
REMARK VINA RESULT:     -11.1     63.019     64.573
REMARK  Name = 
REMARK  3 active torsions:
REMARK  status: ('A' for Active; 'I' for Inactive)
REMARK    1  A    between atoms: C_4  and  O_15
REMARK    2  A    between atoms: C_4  and  C_17
REMARK    3  A    between atoms: O_15  and  C_20
REMARK                            x       y       z     vdW  Elec       q    Type
REMARK                         _______ _______ _______ _____ _____    ______ ____
ROOT
ATOM      1  C   UNL     1     127.684 137.443 154.472  0.00  0.00    +0.000 C 
ATOM      2  C   UNL     1     127.872 137.901 153.963  0.00  0.00    +0.000 C 
ATOM      3  C   UNL     1     128.261 138.823 152.961  0.00  0.00    +0.000 C 
ATOM      4  C   UNL     1     128.553 139.330 152.566  0.00  0.00    +0.000 C 
ATOM      5  C   UNL     1     128.007 137.455 155.097  0.00  0.00    +0.000 C 
ATOM      6  C   UNL     1     128.389 138.371 154.095  0.00  0.00    +0.000 C 
ATOM      7  C   UNL     1     128.581 138.829 153.593  0.00  0.00    +0.000 C 
ATOM      8  C   UNL     1     127.549 137.889 153.336  0.00  0.00    +0.000 C 
ATOM      9  C   UNL     1     127.169 136.973 154.344  0.00  0.00    +0.000 C 
ATOM     10  C   UNL     1     127.745 138.352 152.833  0.00  0.00    +0.000 C 
ATOM     11  C   UNL     1     128.712 138.380 154.726  0.00  0.00    +0.000 C 
ATOM     12  C   UNL     1     127.819 136.998 155.607  0.00  0.00    +0.000 C 
ATOM     13  C   UNL     1     128.520 137.922 155.228  0.00  0.00    +0.000 C 
ATOM     14  C   UNL     1     129.049 139.646 152.952  0.00  0.00    +0.000 C 
ATOM     15  C   UNL     1     129.069 139.341 153.584  0.00  0.00    +0.000 C 
ATOM     16  C   UNL     1     126.981 136.515 154.853  0.00  0.00    +0.000 C 
ATOM     17  C   UNL     1     127.303 136.527 155.478  0.00  0.00    +0.000 C 
ATOM     18  F   UNL     1     128.195 137.910 154.597  0.00  0.00    +0.000 F 
ATOM     19  O   UNL     1     127.112 136.070 155.980  0.00  0.00    +0.000 OA
ATOM     20  C   UNL     1     127.358 137.427 153.844  0.00  0.00    +0.000 C 
ATOM     21  C   UNL     1     127.934 138.804 152.338  0.00  0.00    +0.000 C 
ATOM     22  O   UNL     1     127.033 137.418 153.209  0.00  0.00    +0.000 OA
ATOM     23  C   UNL     1     128.838 137.928 155.856  0.00  0.00    +0.000 C 
ENDROOT
BRANCH   4  24
ATOM     24  C   UNL     1     128.224 139.312 151.939  0.00  0.00    +0.000 C 
ATOM     25  O   UNL     1     128.445 138.872 151.433  0.00  0.00    +0.000 OA
ATOM     26  C   UNL     1     127.669 139.738 151.817  0.00  0.00    +0.000 C 
ENDBRANCH   4  24
BRANCH   4  27
ATOM     27  O   UNL     1     128.741 139.788 152.057  0.00  0.00    +0.000 OA
BRANCH  27  28
ATOM     28  C   UNL     1     129.289 140.224 152.153  0.00  0.00    +0.000 C 
ATOM     29  O   UNL     1     129.940 139.996 152.013  0.00  0.00    +0.000 OA
ATOM     30  C   UNL     1     129.183 140.881 152.387  0.00  0.00    +0.000 C 
ENDBRANCH  27  28
ENDBRANCH   4  27
TORSDOF 3
ENDMDL
MODEL 12
REMARK VINA RESULT:     -11.0     29.386     30.427
REMARK  Name = 
REMARK  3 active torsions:
REMARK  status: ('A' for Active; 'I' for Inactive)
REMARK    1  A    between atoms: C_4  and  O_15
REMARK    2  A    between atoms: C_4  and  C_17
REMARK    3  A    between atoms: O_15  and  C_20
REMARK                            x       y       z     vdW  Elec       q    Type
REMARK                         _______ _______ _______ _____ _____    ______ ____
ROOT
ATOM      1  C   UNL     1     164.238 145.572  90.721  0.00  0.00    +0.000 C 
ATOM      2  C   UNL     1     164.050 144.925  90.944  0.00  0.00    +0.000 C 
ATOM      3  C   UNL     1     163.696 143.629  91.390  0.00  0.00    +0.000 C 
ATOM      4  C   UNL     1     163.668 142.963  91.626  0.00  0.00    +0.000 C 
ATOM      5  C   UNL     1     164.918 145.751  90.684  0.00  0.00    +0.000 C 
ATOM      6  C   UNL     1     164.557 144.462  91.128  0.00  0.00    +0.000 C 
ATOM      7  C   UNL     1     164.377 143.816  91.350  0.00  0.00    +0.000 C 
ATOM      8  C   UNL     1     163.369 144.745  90.982  0.00  0.00    +0.000 C 
ATOM      9  C   UNL     1     163.734 146.036  90.537  0.00  0.00    +0.000 C 
ATOM     10  C   UNL     1     163.191 144.094  91.206  0.00  0.00    +0.000 C 
ATOM     11  C   UNL     1     165.241 144.646  91.089  0.00  0.00    +0.000 C 
ATOM     12  C   UNL     1     165.107 146.398  90.461  0.00  0.00    +0.000 C 
ATOM     13  C   UNL     1     165.421 145.291  90.866  0.00  0.00    +0.000 C 
ATOM     14  C   UNL     1     164.328 142.743  91.729  0.00  0.00    +0.000 C 
ATOM     15  C   UNL     1     164.767 143.265  91.561  0.00  0.00    +0.000 C 
ATOM     16  C   UNL     1     163.922 146.684  90.314  0.00  0.00    +0.000 C 
ATOM     17  C   UNL     1     164.602 146.863  90.277  0.00  0.00    +0.000 C 
ATOM     18  F   UNL     1     164.736 145.111  90.904  0.00  0.00    +0.000 F 
ATOM     19  O   UNL     1     164.782 147.507  90.055  0.00  0.00    +0.000 OA
ATOM     20  C   UNL     1     163.553 145.396  90.758  0.00  0.00    +0.000 C 
ATOM     21  C   UNL     1     163.014 143.457  91.425  0.00  0.00    +0.000 C 
ATOM     22  O   UNL     1     162.866 145.211  90.797  0.00  0.00    +0.000 OA
ATOM     23  C   UNL     1     166.099 145.478  90.826  0.00  0.00    +0.000 C 
ENDROOT
BRANCH   4  24
ATOM     24  C   UNL     1     162.982 142.790  91.661  0.00  0.00    +0.000 C 
ATOM     25  O   UNL     1     162.607 142.934  92.241  0.00  0.00    +0.000 OA
ATOM     26  C   UNL     1     162.668 142.470  91.109  0.00  0.00    +0.000 C 
ENDBRANCH   4  24
BRANCH   4  27
ATOM     27  O   UNL     1     163.480 142.316  91.848  0.00  0.00    +0.000 OA
BRANCH  27  28
ATOM     28  C   UNL     1     163.973 141.830  91.990  0.00  0.00    +0.000 C 
ATOM     29  O   UNL     1     164.284 141.489  91.459  0.00  0.00    +0.000 OA
ATOM     30  C   UNL     1     164.150 141.689  92.659  0.00  0.00    +0.000 C 
ENDBRANCH  27  28
ENDBRANCH   4  27
TORSDOF 3
ENDMDL
MODEL 13
REMARK VINA RESULT:     -11.0      2.960      4.179
REMARK  Name = 
REMARK  3 active torsions:
REMARK  status: ('A' for Active; 'I' for Inactive)
REMARK    1  A    between atoms: C_4  and  O_15
REMARK    2  A    between atoms: C_4  and  C_17
REMARK    3  A    between atoms: O_15  and  C_20
REMARK                            x       y       z     vdW  Elec       q    Type
REMARK                         _______ _______ _______ _____ _____    ______ ____
ROOT
ATOM      1  C   UNL     1     132.276 146.882  88.898  0.00  0.00    +0.000 C 
ATOM      2  C   UNL     1     132.201 147.484  88.529  0.00  0.00    +0.000 C 
ATOM      3  C   UNL     1     132.069 148.692  87.804  0.00  0.00    +0.000 C 
ATOM      4  C   UNL     1     132.125 149.337  87.521  0.00  0.00    +0.000 C 
ATOM      5  C   UNL     1     132.798 146.814  89.365  0.00  0.00    +0.000 C 
ATOM      6  C   UNL     1     132.660 148.015  88.639  0.00  0.00    +0.000 C 
ATOM      7  C   UNL     1     132.592 148.617  88.276  0.00  0.00    +0.000 C 
ATOM      8  C   UNL     1     131.678 147.552  88.061  0.00  0.00    +0.000 C 
ATOM      9  C   UNL     1     131.820 146.349  88.791  0.00  0.00    +0.000 C 
ATOM     10  C   UNL     1     131.612 148.159  87.696  0.00  0.00    +0.000 C 
ATOM     11  C   UNL     1     133.185 147.944  89.111  0.00  0.00    +0.000 C 
ATOM     12  C   UNL     1     132.873 146.213  89.735  0.00  0.00    +0.000 C 
ATOM     13  C   UNL     1     133.253 147.342  89.474  0.00  0.00    +0.000 C 
ATOM     14  C   UNL     1     132.677 149.656  87.817  0.00  0.00    +0.000 C 
ATOM     15  C   UNL     1     132.967 149.216  88.282  0.00  0.00    +0.000 C 
ATOM     16  C   UNL     1     131.894 145.747  89.160  0.00  0.00    +0.000 C 
ATOM     17  C   UNL     1     132.416 145.680  89.627  0.00  0.00    +0.000 C 
ATOM     18  F   UNL     1     132.727 147.410  89.003  0.00  0.00    +0.000 F 
ATOM     19  O   UNL     1     132.485 145.079  89.990  0.00  0.00    +0.000 OA
ATOM     20  C   UNL     1     131.749 146.946  88.429  0.00  0.00    +0.000 C 
ATOM     21  C   UNL     1     131.545 148.753  87.338  0.00  0.00    +0.000 C 
ATOM     22  O   UNL     1     131.222 147.018  87.954  0.00  0.00    +0.000 OA
ATOM     23  C   UNL     1     133.773 147.267  89.943  0.00  0.00    +0.000 C 
ENDROOT
BRANCH   4  24
ATOM     24  C   UNL     1     131.597 149.398  87.052  0.00  0.00    +0.000 C 
ATOM     25  O   UNL     1     130.956 149.606  87.262  0.00  0.00    +0.000 OA
ATOM     26  C   UNL     1     131.712 149.249  86.367  0.00  0.00    +0.000 C 
ENDBRANCH   4  24
BRANCH   4  27
ATOM     27  O   UNL     1     132.050 149.940  87.152  0.00  0.00    +0.000 OA
BRANCH  27  28
ATOM     28  C   UNL     1     132.521 150.461  87.221  0.00  0.00    +0.000 C 
ATOM     29  O   UNL     1     133.115 150.441  86.843  0.00  0.00    +0.000 OA
ATOM     30  C   UNL     1     132.397 150.996  87.664  0.00  0.00    +0.000 C 
ENDBRANCH  27  28
ENDBRANCH   4  27
TORSDOF 3
ENDMDL
MODEL 14
REMARK VINA RESULT:     -10.8     72.169     73.224
REMARK  Name = 
REMARK  3 active torsions:
REMARK  status: ('A' for Active; 'I' for Inactive)
REMARK    1  A    between atoms: C_4  and  O_15
REMARK    2  A    between atoms: C_4  and  C_17
REMARK    3  A    between atoms: O_15  and  C_20
REMARK                            x       y       z     vdW  Elec       q    Type
REMARK                         _______ _______ _______ _____ _____    ______ ____
ROOT
ATOM      1  C   UNL     1     113.934 126.640 155.870  0.00  0.00    +0.000 C 
ATOM      2  C   UNL     1     113.994 127.022 156.465  0.00  0.00    +0.000 C 
ATOM      3  C   UNL     1     114.095 127.775 157.660  0.00  0.00    +0.000 C 
ATOM      4  C   UNL     1     114.016 128.083 158.291  0.00  0.00    +0.000 C 
ATOM      5  C   UNL     1     113.383 126.212 155.777  0.00  0.00    +0.000 C 
ATOM      6  C   UNL     1     113.490 126.965 156.965  0.00  0.00    +0.000 C 
ATOM      7  C   UNL     1     113.544 127.342 157.559  0.00  0.00    +0.000 C 
ATOM      8  C   UNL     1     114.545 127.451 156.559  0.00  0.00    +0.000 C 
ATOM      9  C   UNL     1     114.434 126.695 155.370  0.00  0.00    +0.000 C 
ATOM     10  C   UNL     1     114.596 127.830 157.159  0.00  0.00    +0.000 C 
ATOM     11  C   UNL     1     112.937 126.532 156.867  0.00  0.00    +0.000 C 
ATOM     12  C   UNL     1     113.322 125.830 155.182  0.00  0.00    +0.000 C 
ATOM     13  C   UNL     1     112.884 126.156 156.273  0.00  0.00    +0.000 C 
ATOM     14  C   UNL     1     113.420 127.840 158.576  0.00  0.00    +0.000 C 
ATOM     15  C   UNL     1     113.127 127.384 158.129  0.00  0.00    +0.000 C 
ATOM     16  C   UNL     1     114.374 126.313 154.774  0.00  0.00    +0.000 C 
ATOM     17  C   UNL     1     113.823 125.884 154.681  0.00  0.00    +0.000 C 
ATOM     18  F   UNL     1     113.438 126.587 156.367  0.00  0.00    +0.000 F 
ATOM     19  O   UNL     1     113.769 125.508 154.088  0.00  0.00    +0.000 OA
ATOM     20  C   UNL     1     114.489 127.070 155.960  0.00  0.00    +0.000 C 
ATOM     21  C   UNL     1     114.648 128.202 157.746  0.00  0.00    +0.000 C 
ATOM     22  O   UNL     1     115.045 127.506 156.058  0.00  0.00    +0.000 OA
ATOM     23  C   UNL     1     112.336 125.725 156.172  0.00  0.00    +0.000 C 
ENDROOT
BRANCH   4  24
ATOM     24  C   UNL     1     114.573 128.512 158.378  0.00  0.00    +0.000 C 
ATOM     25  O   UNL     1     115.177 128.263 158.644  0.00  0.00    +0.000 OA
ATOM     26  C   UNL     1     114.524 129.197 158.196  0.00  0.00    +0.000 C 
ENDBRANCH   4  24
BRANCH   4  27
ATOM     27  O   UNL     1     114.076 128.465 158.887  0.00  0.00    +0.000 OA
BRANCH  27  28
ATOM     28  C   UNL     1     113.612 128.381 159.413  0.00  0.00    +0.000 C 
ATOM     29  O   UNL     1     113.005 128.737 159.397  0.00  0.00    +0.000 OA
ATOM     30  C   UNL     1     113.757 127.944 159.948  0.00  0.00    +0.000 C 
ENDBRANCH  27  28
ENDBRANCH   4  27
TORSDOF 3
ENDMDL
MODEL 15
REMARK VINA RESULT:     -10.7    111.378    112.972
REMARK  Name = 
REMARK  3 active torsions:
REMARK  status: ('A' for Active; 'I' for Inactive)
REMARK    1  A    between atoms: C_4  and  O_15
REMARK    2  A    between atoms: C_4  and  C_17
REMARK    3  A    between atoms: O_15  and  C_20
REMARK                            x       y       z     vdW  Elec       q    Type
REMARK                         _______ _______ _______ _____ _____    ______ ____
ROOT
ATOM      1  C   UNL     1     147.730 103.627 194.066  0.00  0.00    +0.000 C 
ATOM      2  C   UNL     1     147.618 104.153 193.603  0.00  0.00    +0.000 C 
ATOM      3  C   UNL     1     147.415 105.204 192.676  0.00  0.00    +0.000 C 
ATOM      4  C   UNL     1     147.463 105.716 192.191  0.00  0.00    +0.000 C 
ATOM      5  C   UNL     1     148.378 103.367 194.159  0.00  0.00    +0.000 C 
ATOM      6  C   UNL     1     148.168 104.414 193.236  0.00  0.00    +0.000 C 
ATOM      7  C   UNL     1     148.064 104.938 192.775  0.00  0.00    +0.000 C 
ATOM      8  C   UNL     1     146.969 104.413 193.510  0.00  0.00    +0.000 C 
ATOM      9  C   UNL     1     147.183 103.364 194.433  0.00  0.00    +0.000 C 
ATOM     10  C   UNL     1     146.867 104.941 193.044  0.00  0.00    +0.000 C 
ATOM     11  C   UNL     1     148.819 104.150 193.333  0.00  0.00    +0.000 C 
ATOM     12  C   UNL     1     148.491 102.841 194.621  0.00  0.00    +0.000 C 
ATOM     13  C   UNL     1     148.924 103.627 193.794  0.00  0.00    +0.000 C 
ATOM     14  C   UNL     1     148.136 105.764 191.993  0.00  0.00    +0.000 C 
ATOM     15  C   UNL     1     148.509 105.287 192.350  0.00  0.00    +0.000 C 
ATOM     16  C   UNL     1     147.295 102.838 194.896  0.00  0.00    +0.000 C 
ATOM     17  C   UNL     1     147.943 102.578 194.989  0.00  0.00    +0.000 C 
ATOM     18  F   UNL     1     148.271 103.888 193.701  0.00  0.00    +0.000 F 
ATOM     19  O   UNL     1     148.047 102.055 195.450  0.00  0.00    +0.000 OA
ATOM     20  C   UNL     1     147.077 103.885 193.975  0.00  0.00    +0.000 C 
ATOM     21  C   UNL     1     146.765 105.458 192.588  0.00  0.00    +0.000 C 
ATOM     22  O   UNL     1     146.422 104.150 193.878  0.00  0.00    +0.000 OA
ATOM     23  C   UNL     1     149.569 103.362 193.893  0.00  0.00    +0.000 C 
ENDROOT
BRANCH   4  24
ATOM     24  C   UNL     1     146.808 105.971 192.103  0.00  0.00    +0.000 C 
ATOM     25  O   UNL     1     146.360 105.659 191.656  0.00  0.00    +0.000 OA
ATOM     26  C   UNL     1     146.600 106.546 192.466  0.00  0.00    +0.000 C 
ENDBRANCH   4  24
BRANCH   4  27
ATOM     27  O   UNL     1     147.351 106.242 191.728  0.00  0.00    +0.000 OA
BRANCH  27  28
ATOM     28  C   UNL     1     147.875 106.470 191.313  0.00  0.00    +0.000 C 
ATOM     29  O   UNL     1     148.019 106.123 190.718  0.00  0.00    +0.000 OA
ATOM     30  C   UNL     1     148.249 107.040 191.495  0.00  0.00    +0.000 C 
ENDBRANCH  27  28
ENDBRANCH   4  27
TORSDOF 3
ENDMDL
MODEL 16
REMARK VINA RESULT:     -10.6    111.851    113.483
REMARK  Name = 
REMARK  3 active torsions:
REMARK  status: ('A' for Active; 'I' for Inactive)
REMARK    1  A    between atoms: C_4  and  O_15
REMARK    2  A    between atoms: C_4  and  C_17
REMARK    3  A    between atoms: O_15  and  C_20
REMARK                            x       y       z     vdW  Elec       q    Type
REMARK                         _______ _______ _______ _____ _____    ______ ____
ROOT
ATOM      1  C   UNL     1     147.370 106.059 192.968  0.00  0.00    +0.000 C 
ATOM      2  C   UNL     1     147.311 106.042 193.675  0.00  0.00    +0.000 C 
ATOM      3  C   UNL     1     147.188 105.986 195.084  0.00  0.00    +0.000 C 
ATOM      4  C   UNL     1     147.099 105.811 195.763  0.00  0.00    +0.000 C 
ATOM      5  C   UNL     1     147.285 105.472 192.589  0.00  0.00    +0.000 C 
ATOM      6  C   UNL     1     147.164 105.423 193.994  0.00  0.00    +0.000 C 
ATOM      7  C   UNL     1     147.103 105.399 194.697  0.00  0.00    +0.000 C 
ATOM      8  C   UNL     1     147.396 106.630 194.054  0.00  0.00    +0.000 C 
ATOM      9  C   UNL     1     147.516 106.674 192.646  0.00  0.00    +0.000 C 
ATOM     10  C   UNL     1     147.334 106.602 194.763  0.00  0.00    +0.000 C 
ATOM     11  C   UNL     1     147.079 104.834 193.610  0.00  0.00    +0.000 C 
ATOM     12  C   UNL     1     147.345 105.488 191.883  0.00  0.00    +0.000 C 
ATOM     13  C   UNL     1     147.140 104.858 192.907  0.00  0.00    +0.000 C 
ATOM     14  C   UNL     1     146.962 105.122 195.793  0.00  0.00    +0.000 C 
ATOM     15  C   UNL     1     146.963 104.865 195.140  0.00  0.00    +0.000 C 
ATOM     16  C   UNL     1     147.576 106.692 191.939  0.00  0.00    +0.000 C 
ATOM     17  C   UNL     1     147.491 106.105 191.561  0.00  0.00    +0.000 C 
ATOM     18  F   UNL     1     147.225 105.450 193.288  0.00  0.00    +0.000 F 
ATOM     19  O   UNL     1     147.552 106.129 190.859  0.00  0.00    +0.000 OA
ATOM     20  C   UNL     1     147.457 106.652 193.345  0.00  0.00    +0.000 C 
ATOM     21  C   UNL     1     147.274 106.577 195.456  0.00  0.00    +0.000 C 
ATOM     22  O   UNL     1     147.542 107.245 193.732  0.00  0.00    +0.000 OA
ATOM     23  C   UNL     1     147.056 104.275 192.522  0.00  0.00    +0.000 C 
ENDROOT
BRANCH   4  24
ATOM     24  C   UNL     1     147.186 106.406 196.137  0.00  0.00    +0.000 C 
ATOM     25  O   UNL     1     146.642 106.842 196.247  0.00  0.00    +0.000 OA
ATOM     26  C   UNL     1     147.825 106.568 196.405  0.00  0.00    +0.000 C 
ENDBRANCH   4  24
BRANCH   4  27
ATOM     27  O   UNL     1     147.040 105.794 196.471  0.00  0.00    +0.000 OA
BRANCH  27  28
ATOM     28  C   UNL     1     146.995 105.176 196.810  0.00  0.00    +0.000 C 
ATOM     29  O   UNL     1     147.579 104.796 196.912  0.00  0.00    +0.000 OA
ATOM     30  C   UNL     1     146.371 104.943 197.043  0.00  0.00    +0.000 C 
ENDBRANCH  27  28
ENDBRANCH   4  27
TORSDOF 3
ENDMDL
MODEL 17
REMARK VINA RESULT:     -10.6     63.626     65.183
REMARK  Name = 
REMARK  3 active torsions:
REMARK  status: ('A' for Active; 'I' for Inactive)
REMARK    1  A    between atoms: C_4  and  O_15
REMARK    2  A    between atoms: C_4  and  C_17
REMARK    3  A    between atoms: O_15  and  C_20
REMARK                            x       y       z     vdW  Elec       q    Type
REMARK                         _______ _______ _______ _____ _____    ______ ____
ROOT
ATOM      1  C   UNL     1     127.777 138.297 152.868  0.00  0.00    +0.000 C 
ATOM      2  C   UNL     1     127.741 137.990 153.507  0.00  0.00    +0.000 C 
ATOM      3  C   UNL     1     127.685 137.390 154.789  0.00  0.00    +0.000 C 
ATOM      4  C   UNL     1     127.767 137.188 155.461  0.00  0.00    +0.000 C 
ATOM      5  C   UNL     1     128.237 138.816 152.749  0.00  0.00    +0.000 C 
ATOM      6  C   UNL     1     128.175 138.214 154.024  0.00  0.00    +0.000 C 
ATOM      7  C   UNL     1     128.145 137.913 154.661  0.00  0.00    +0.000 C 
ATOM      8  C   UNL     1     127.280 137.469 153.627  0.00  0.00    +0.000 C 
ATOM      9  C   UNL     1     127.345 138.075 152.351  0.00  0.00    +0.000 C 
ATOM     10  C   UNL     1     127.252 137.168 154.271  0.00  0.00    +0.000 C 
ATOM     11  C   UNL     1     128.637 138.737 153.900  0.00  0.00    +0.000 C 
ATOM     12  C   UNL     1     128.273 139.124 152.111  0.00  0.00    +0.000 C 
ATOM     13  C   UNL     1     128.668 139.039 153.262  0.00  0.00    +0.000 C 
ATOM     14  C   UNL     1     128.274 137.585 155.745  0.00  0.00    +0.000 C 
ATOM     15  C   UNL     1     128.509 138.032 155.256  0.00  0.00    +0.000 C 
ATOM     16  C   UNL     1     127.380 138.383 151.712  0.00  0.00    +0.000 C 
ATOM     17  C   UNL     1     127.840 138.902 151.593  0.00  0.00    +0.000 C 
ATOM     18  F   UNL     1     128.205 138.515 153.382  0.00  0.00    +0.000 F 
ATOM     19  O   UNL     1     127.871 139.203 150.957  0.00  0.00    +0.000 OA
ATOM     20  C   UNL     1     127.313 137.775 152.984  0.00  0.00    +0.000 C 
ATOM     21  C   UNL     1     127.223 136.871 154.900  0.00  0.00    +0.000 C 
ATOM     22  O   UNL     1     126.848 137.248 153.109  0.00  0.00    +0.000 OA
ATOM     23  C   UNL     1     129.125 139.559 153.136  0.00  0.00    +0.000 C 
ENDROOT
BRANCH   4  24
ATOM     24  C   UNL     1     127.302 136.666 155.573  0.00  0.00    +0.000 C 
ATOM     25  O   UNL     1     126.631 136.815 155.737  0.00  0.00    +0.000 OA
ATOM     26  C   UNL     1     127.509 135.988 155.521  0.00  0.00    +0.000 C 
ENDBRANCH   4  24
BRANCH   4  27
ATOM     27  O   UNL     1     127.731 136.881 156.100  0.00  0.00    +0.000 OA
BRANCH  27  28
ATOM     28  C   UNL     1     128.084 137.154 156.648  0.00  0.00    +0.000 C 
ATOM     29  O   UNL     1     127.824 137.719 156.978  0.00  0.00    +0.000 OA
ATOM     30  C   UNL     1     128.690 136.862 156.860  0.00  0.00    +0.000 C 
ENDBRANCH  27  28
ENDBRANCH   4  27
TORSDOF 3
ENDMDL
MODEL 18
REMARK VINA RESULT:     -10.6     51.587     52.122
REMARK  Name = 
REMARK  3 active torsions:
REMARK  status: ('A' for Active; 'I' for Inactive)
REMARK    1  A    between atoms: C_4  and  O_15
REMARK    2  A    between atoms: C_4  and  C_17
REMARK    3  A    between atoms: O_15  and  C_20
REMARK                            x       y       z     vdW  Elec       q    Type
REMARK                         _______ _______ _______ _____ _____    ______ ____
ROOT
ATOM      1  C   UNL     1     113.232 124.108 130.992  0.00  0.00    +0.000 C 
ATOM      2  C   UNL     1     113.095 124.757 131.245  0.00  0.00    +0.000 C 
ATOM      3  C   UNL     1     112.841 126.057 131.745  0.00  0.00    +0.000 C 
ATOM      4  C   UNL     1     112.859 126.731 131.958  0.00  0.00    +0.000 C 
ATOM      5  C   UNL     1     113.871 123.953 130.741  0.00  0.00    +0.000 C 
ATOM      6  C   UNL     1     113.611 125.246 131.241  0.00  0.00    +0.000 C 
ATOM      7  C   UNL     1     113.481 125.893 131.491  0.00  0.00    +0.000 C 
ATOM      8  C   UNL     1     112.455 124.913 131.497  0.00  0.00    +0.000 C 
ATOM      9  C   UNL     1     112.720 123.618 130.995  0.00  0.00    +0.000 C 
ATOM     10  C   UNL     1     112.328 125.566 131.748  0.00  0.00    +0.000 C 
ATOM     11  C   UNL     1     114.254 125.086 130.987  0.00  0.00    +0.000 C 
ATOM     12  C   UNL     1     114.009 123.304 130.488  0.00  0.00    +0.000 C 
ATOM     13  C   UNL     1     114.383 124.439 130.737  0.00  0.00    +0.000 C 
ATOM     14  C   UNL     1     113.505 126.979 131.834  0.00  0.00    +0.000 C 
ATOM     15  C   UNL     1     113.891 126.468 131.547  0.00  0.00    +0.000 C 
ATOM     16  C   UNL     1     112.857 122.969 130.742  0.00  0.00    +0.000 C 
ATOM     17  C   UNL     1     113.496 122.814 130.491  0.00  0.00    +0.000 C 
ATOM     18  F   UNL     1     113.740 124.595 130.990  0.00  0.00    +0.000 F 
ATOM     19  O   UNL     1     113.626 122.167 130.241  0.00  0.00    +0.000 OA
ATOM     20  C   UNL     1     112.588 124.261 131.244  0.00  0.00    +0.000 C 
ATOM     21  C   UNL     1     112.200 126.205 131.995  0.00  0.00    +0.000 C 
ATOM     22  O   UNL     1     111.943 124.422 131.500  0.00  0.00    +0.000 OA
ATOM     23  C   UNL     1     115.020 124.276 130.484  0.00  0.00    +0.000 C 
ENDROOT
BRANCH   4  24
ATOM     24  C   UNL     1     112.214 126.880 132.209  0.00  0.00    +0.000 C 
ATOM     25  O   UNL     1     112.053 126.743 132.882  0.00  0.00    +0.000 OA
ATOM     26  C   UNL     1     111.724 127.168 131.781  0.00  0.00    +0.000 C 
ENDBRANCH   4  24
BRANCH   4  27
ATOM     27  O   UNL     1     112.721 127.380 132.210  0.00  0.00    +0.000 OA
BRANCH  27  28
ATOM     28  C   UNL     1     113.221 127.879 132.203  0.00  0.00    +0.000 C 
ATOM     29  O   UNL     1     113.340 128.239 131.609  0.00  0.00    +0.000 OA
ATOM     30  C   UNL     1     113.596 128.015 132.785  0.00  0.00    +0.000 C 
ENDBRANCH  27  28
ENDBRANCH   4  27
TORSDOF 3
ENDMDL
MODEL 19
REMARK VINA RESULT:     -10.4      3.036      5.041
REMARK  Name = 
REMARK  3 active torsions:
REMARK  status: ('A' for Active; 'I' for Inactive)
REMARK    1  A    between atoms: C_4  and  O_15
REMARK    2  A    between atoms: C_4  and  C_17
REMARK    3  A    between atoms: O_15  and  C_20
REMARK                            x       y       z     vdW  Elec       q    Type
REMARK                         _______ _______ _______ _____ _____    ______ ____
ROOT
ATOM      1  C   UNL     1     132.161 149.135  87.257  0.00  0.00    +0.000 C 
ATOM      2  C   UNL     1     132.394 149.546  86.727  0.00  0.00    +0.000 C 
ATOM      3  C   UNL     1     132.867 150.378  85.683  0.00  0.00    +0.000 C 
ATOM      4  C   UNL     1     133.162 150.873  85.275  0.00  0.00    +0.000 C 
ATOM      5  C   UNL     1     132.310 149.300  87.925  0.00  0.00    +0.000 C 
ATOM      6  C   UNL     1     132.778 150.124  86.880  0.00  0.00    +0.000 C 
ATOM      7  C   UNL     1     133.013 150.537  86.358  0.00  0.00    +0.000 C 
ATOM      8  C   UNL     1     132.244 149.381  86.058  0.00  0.00    +0.000 C 
ATOM      9  C   UNL     1     131.777 148.558  87.107  0.00  0.00    +0.000 C 
ATOM     10  C   UNL     1     132.482 149.800  85.533  0.00  0.00    +0.000 C 
ATOM     11  C   UNL     1     132.927 150.286  87.554  0.00  0.00    +0.000 C 
ATOM     12  C   UNL     1     132.078 148.890  88.456  0.00  0.00    +0.000 C 
ATOM     13  C   UNL     1     132.692 149.874  88.077  0.00  0.00    +0.000 C 
ATOM     14  C   UNL     1     133.487 151.334  85.696  0.00  0.00    +0.000 C 
ATOM     15  C   UNL     1     133.398 151.130  86.363  0.00  0.00    +0.000 C 
ATOM     16  C   UNL     1     131.545 148.147  87.638  0.00  0.00    +0.000 C 
ATOM     17  C   UNL     1     131.694 148.312  88.306  0.00  0.00    +0.000 C 
ATOM     18  F   UNL     1     132.542 149.708  87.404  0.00  0.00    +0.000 F 
ATOM     19  O   UNL     1     131.460 147.900  88.828  0.00  0.00    +0.000 OA
ATOM     20  C   UNL     1     132.009 148.967  86.586  0.00  0.00    +0.000 C 
ATOM     21  C   UNL     1     132.713 150.207  85.018  0.00  0.00    +0.000 C 
ATOM     22  O   UNL     1     131.860 148.804  85.908  0.00  0.00    +0.000 OA
ATOM     23  C   UNL     1     132.837 150.032  88.747  0.00  0.00    +0.000 C 
ENDROOT
BRANCH   4  24
ATOM     24  C   UNL     1     133.008 150.702  84.606  0.00  0.00    +0.000 C 
ATOM     25  O   UNL     1     132.394 150.898  84.319  0.00  0.00    +0.000 OA
ATOM     26  C   UNL     1     133.474 150.329  84.219  0.00  0.00    +0.000 C 
ENDBRANCH   4  24
BRANCH   4  27
ATOM     27  O   UNL     1     133.395 151.284  84.745  0.00  0.00    +0.000 OA
BRANCH  27  28
ATOM     28  C   UNL     1     133.809 151.841  84.879  0.00  0.00    +0.000 C 
ATOM     29  O   UNL     1     134.498 151.741  84.979  0.00  0.00    +0.000 OA
ATOM     30  C   UNL     1     133.532 152.489  84.912  0.00  0.00    +0.000 C 
ENDBRANCH  27  28
ENDBRANCH   4  27
TORSDOF 3
ENDMDL
