REMARK  Name = 
REMARK  2 active torsions:
REMARK  status: ('A' for Active; 'I' for Inactive)
REMARK    1  A    between atoms: N_3  and  C_5
REMARK    2  A    between atoms: C_5  and  C_6
REMARK                            x       y       z     vdW  Elec       q    Type
REMARK                         _______ _______ _______ _____ _____    ______ ____
ROOT
ATOM      1  C   UNL     1      -0.208  -1.650   0.000  0.00  0.00    +0.000 C 
ENDROOT
BRANCH   1   4
ATOM      2  C   UNL     1       1.004  -1.642   0.000  0.00  0.00    +0.000 C 
ATOM      3  N   UNL     1       1.025  -0.942   0.000  0.00  0.00    +0.000 NA
ATOM      4  N   UNL     1       0.400  -1.992   0.000  0.00  0.00    +0.000 NA
ATOM      5  N   UNL     1       1.604  -1.992   0.000  0.00  0.00    +0.000 NA
ATOM      6  C   UNL     1       1.654  -0.621   0.000  0.00  0.00    +0.000 C 
ATOM      7  C   UNL     1       2.242  -1.642   0.000  0.00  0.00    +0.000 C 
ENDBRANCH   1   4
BRANCH   1   8
ATOM      8  C   UNL     1      -0.808  -1.992   0.000  0.00  0.00    +0.000 A 
ATOM      9  C   UNL     1      -1.446  -1.625   0.000  0.00  0.00    +0.000 A 
ATOM     10  C   UNL     1      -0.800  -2.679   0.000  0.00  0.00    +0.000 A 
ATOM     11  C   UNL     1      -2.046  -1.954   0.000  0.00  0.00    +0.000 A 
ATOM     12  C   UNL     1      -1.446  -3.042   0.000  0.00  0.00    +0.000 A 
ATOM     13  C   UNL     1      -2.058  -2.692   0.000  0.00  0.00    +0.000 A 
ENDBRANCH   1   8
TORSDOF 2
