REMARK  Name = 
REMARK  6 active torsions:
REMARK  status: ('A' for Active; 'I' for Inactive)
REMARK    1  A    between atoms: C_1  and  C_2
REMARK    2  A    between atoms: N_4  and  C_12
REMARK    3  A    between atoms: N_8  and  C_13
REMARK    4  A    between atoms: N_8  and  C_14
REMARK    5  A    between atoms: N_8  and  C_15
REMARK    6  A    between atoms: C_12  and  C_13
REMARK                            x       y       z     vdW  Elec       q    Type
REMARK                         _______ _______ _______ _____ _____    ______ ____
ROOT
ATOM      1  C   UNL     1       4.604  -7.054   0.000  0.00  0.00    +0.000 C 
ATOM      2  O   UNL     1       4.617  -6.354   0.000  0.00  0.00    +0.000 OA
ATOM      3  N   UNL     1       5.204  -7.429   0.000  0.00  0.00    +0.000 NA
ENDROOT
BRANCH   1   4
ATOM      4  C   UNL     1       3.979  -7.404   0.000  0.00  0.00    +0.000 A 
ATOM      5  C   UNL     1       3.375  -7.042   0.000  0.00  0.00    +0.000 A 
ATOM      6  C   UNL     1       3.967  -8.117   0.000  0.00  0.00    +0.000 A 
ATOM      7  C   UNL     1       2.729  -8.092   0.000  0.00  0.00    +0.000 A 
ATOM      8  N   UNL     1       2.112  -8.438   0.000  0.00  0.00    +0.000 NA
ATOM      9  C   UNL     1       3.342  -8.463   0.000  0.00  0.00    +0.000 A 
ATOM     10  C   UNL     1       2.742  -7.379   0.000  0.00  0.00    +0.000 A 
ENDBRANCH   1   4
BRANCH   3  11
ATOM     11  C   UNL     1       5.829  -7.088   0.000  0.00  0.00    +0.000 C 
BRANCH  11  12
ATOM     12  C   UNL     1       6.442  -7.450   0.000  0.00  0.00    +0.000 C 
BRANCH  12  13
ATOM     13  N   UNL     1       7.067  -7.104   0.000  0.00  0.00    +0.000 NA
BRANCH  13  14
ATOM     14  C   UNL     1       7.679  -7.479   0.000  0.00  0.00    +0.000 C 
ATOM     15  C   UNL     1       8.304  -7.129   0.000  0.00  0.00    +0.000 C 
ENDBRANCH  13  14
BRANCH  13  16
ATOM     16  C   UNL     1       7.079  -6.392   0.000  0.00  0.00    +0.000 C 
ATOM     17  C   UNL     1       7.704  -6.054   0.000  0.00  0.00    +0.000 C 
ENDBRANCH  13  16
ENDBRANCH  12  13
ENDBRANCH  11  12
ENDBRANCH   3  11
TORSDOF 6
