REMARK  Name = 
REMARK  12 active torsions:
REMARK  status: ('A' for Active; 'I' for Inactive)
REMARK    1  A    between atoms: C_1  and  C_4
REMARK    2  A    between atoms: C_2  and  C_6
REMARK    3  A    between atoms: C_3  and  C_8
REMARK    4  A    between atoms: C_6  and  O_13
REMARK    5  A    between atoms: C_8  and  O_16
REMARK    6  A    between atoms: O_13  and  C_20
REMARK    7  A    between atoms: C_18  and  N_43
REMARK    8  A    between atoms: C_20  and  C_23
REMARK    9  A    between atoms: C_23  and  N_24
REMARK   10  A    between atoms: N_29  and  C_30
REMARK   11  A    between atoms: C_30  and  C_31
REMARK   12  A    between atoms: C_30  and  C_32
REMARK                            x       y       z     vdW  Elec       q    Type
REMARK                         _______ _______ _______ _____ _____    ______ ____
ROOT
ATOM      1  C   UNL     1       2.920  -3.031   0.000  0.00  0.00    +0.000 C 
ATOM      2  O   UNL     1       2.920  -2.328   0.000  0.00  0.00    +0.000 OA
ENDROOT
BRANCH   1   4
ATOM      3  C   UNL     1       1.706  -3.054   0.000  0.00  0.00    +0.000 C 
ATOM      4  C   UNL     1       2.323  -3.395   0.000  0.00  0.00    +0.000 C 
ATOM      5  C   UNL     1       1.095  -3.395   0.000  0.00  0.00    +0.000 C 
ATOM      6  C   UNL     1       2.323  -4.105   0.000  0.00  0.00    +0.000 C 
ATOM      7  C   UNL     1       1.095  -4.105   0.000  0.00  0.00    +0.000 C 
ATOM      8  N   UNL     1       1.706  -4.487   0.000  0.00  0.00    +0.000 NA
ATOM      9  C   UNL     1       2.937  -4.439   0.000  0.00  0.00    +0.000 C 
ATOM     10  C   UNL     1       0.489  -4.439   0.000  0.00  0.00    +0.000 C 
BRANCH   3  11
ATOM     11  C   UNL     1       1.706  -2.335   0.000  0.00  0.00    +0.000 A 
ATOM     12  C   UNL     1       2.323  -1.960   0.000  0.00  0.00    +0.000 A 
ATOM     13  C   UNL     1       1.095  -1.960   0.000  0.00  0.00    +0.000 A 
ATOM     14  C   UNL     1       2.323  -1.250   0.000  0.00  0.00    +0.000 A 
ATOM     15  C   UNL     1       1.095  -1.250   0.000  0.00  0.00    +0.000 A 
ATOM     16  C   UNL     1       1.706  -0.916   0.000  0.00  0.00    +0.000 A 
BRANCH  14  17
ATOM     17  N   UNL     1       2.920  -0.882   0.000  0.00  0.00    +0.000 N 
ATOM     18  O   UNL     1       2.920  -0.183   0.000  0.00  0.00    +0.000 OA
ATOM     19  O   UNL     1       3.582  -1.179   0.000  0.00  0.00    +0.000 OA
ENDBRANCH  14  17
ENDBRANCH   3  11
BRANCH   5  20
ATOM     20  C   UNL     1       0.495  -3.031   0.000  0.00  0.00    +0.000 C 
ATOM     21  O   UNL     1       0.495  -2.328   0.000  0.00  0.00    +0.000 OA
BRANCH  20  22
ATOM     22  O   UNL     1      -0.122  -3.358   0.000  0.00  0.00    +0.000 OA
ATOM     23  C   UNL     1      -0.723  -2.983   0.000  0.00  0.00    +0.000 C 
ENDBRANCH  20  22
ENDBRANCH   5  20
ENDBRANCH   1   4
BRANCH   1  24
ATOM     24  O   UNL     1       3.551  -3.365   0.000  0.00  0.00    +0.000 OA
BRANCH  24  25
ATOM     25  C   UNL     1       4.164  -3.007   0.000  0.00  0.00    +0.000 C 
BRANCH  25  26
ATOM     26  C   UNL     1       4.782  -3.358   0.000  0.00  0.00    +0.000 C 
BRANCH  26  27
ATOM     27  N   UNL     1       5.388  -3.000   0.000  0.00  0.00    +0.000 NA
ATOM     28  C   UNL     1       5.388  -2.287   0.000  0.00  0.00    +0.000 C 
ATOM     29  C   UNL     1       6.010  -3.358   0.000  0.00  0.00    +0.000 C 
ATOM     30  C   UNL     1       6.010  -1.926   0.000  0.00  0.00    +0.000 C 
ATOM     31  C   UNL     1       6.613  -3.000   0.000  0.00  0.00    +0.000 C 
ATOM     32  N   UNL     1       6.613  -2.287   0.000  0.00  0.00    +0.000 NA
BRANCH  32  33
ATOM     33  C   UNL     1       7.248  -1.905   0.000  0.00  0.00    +0.000 C 
BRANCH  33  34
ATOM     34  C   UNL     1       7.896  -2.335   0.000  0.00  0.00    +0.000 A 
ATOM     35  C   UNL     1       7.896  -3.051   0.000  0.00  0.00    +0.000 A 
ATOM     36  C   UNL     1       8.502  -1.960   0.000  0.00  0.00    +0.000 A 
ATOM     37  C   UNL     1       8.502  -3.395   0.000  0.00  0.00    +0.000 A 
ATOM     38  C   UNL     1       9.113  -2.335   0.000  0.00  0.00    +0.000 A 
ATOM     39  C   UNL     1       9.113  -3.051   0.000  0.00  0.00    +0.000 A 
ENDBRANCH  33  34
BRANCH  33  40
ATOM     40  C   UNL     1       7.248  -1.179   0.000  0.00  0.00    +0.000 A 
ATOM     41  C   UNL     1       6.640  -0.800   0.000  0.00  0.00    +0.000 A 
ATOM     42  C   UNL     1       7.854  -0.800   0.000  0.00  0.00    +0.000 A 
ATOM     43  C   UNL     1       6.640  -0.081   0.000  0.00  0.00    +0.000 A 
ATOM     44  C   UNL     1       7.854  -0.081   0.000  0.00  0.00    +0.000 A 
ATOM     45  C   UNL     1       7.248   0.253   0.000  0.00  0.00    +0.000 A 
ENDBRANCH  33  40
ENDBRANCH  32  33
ENDBRANCH  26  27
ENDBRANCH  25  26
ENDBRANCH  24  25
ENDBRANCH   1  24
TORSDOF 12
