REMARK  Name = 
REMARK  2 active torsions:
REMARK  status: ('A' for Active; 'I' for Inactive)
REMARK    1  A    between atoms: N_1  and  O_7
REMARK    2  A    between atoms: C_4  and  O_7
REMARK                            x       y       z     vdW  Elec       q    Type
REMARK                         _______ _______ _______ _____ _____    ______ ____
ROOT
ATOM      1  C   UNL     1       4.188  -4.775   0.000  0.00  0.00    +0.000 C 
ATOM      2  C   UNL     1       4.188  -4.050   0.000  0.00  0.00    +0.000 C 
ATOM      3  C   UNL     1       4.862  -4.975   0.000  0.00  0.00    +0.000 C 
ATOM      4  O   UNL     1       4.862  -3.817   0.000  0.00  0.00    +0.000 OA
ATOM      5  O   UNL     1       3.513  -4.987   0.000  0.00  0.00    +0.000 OA
ATOM      6  C   UNL     1       3.517  -3.842   0.000  0.00  0.00    +0.000 C 
ATOM      7  C   UNL     1       5.292  -4.417   0.000  0.00  0.00    +0.000 C 
ATOM      8  C   UNL     1       3.092  -4.400   0.000  0.00  0.00    +0.000 C 
ATOM      9  O   UNL     1       3.304  -3.167   0.000  0.00  0.00    +0.000 OA
ENDROOT
BRANCH   3  10
ATOM     10  O   UNL     1       4.888  -5.679   0.000  0.00  0.00    +0.000 OA
BRANCH  10  11
ATOM     11  N   UNL     1       5.513  -6.004   0.000  0.00  0.00    +0.000 N 
ATOM     12  O   UNL     1       5.537  -6.717   0.000  0.00  0.00    +0.000 OA
ATOM     13  O   UNL     1       6.092  -5.612   0.000  0.00  0.00    +0.000 OA
ENDBRANCH  10  11
ENDBRANCH   3  10
TORSDOF 2
