MODEL 1
REMARK VINA RESULT:     -13.9      0.000      0.000
REMARK  Name = 
REMARK  3 active torsions:
REMARK  status: ('A' for Active; 'I' for Inactive)
REMARK    1  A    between atoms: C_9  and  C_25
REMARK    2  A    between atoms: C_25  and  C_26
REMARK    3  A    between atoms: C_26  and  C_27
REMARK                            x       y       z     vdW  Elec       q    Type
REMARK                         _______ _______ _______ _____ _____    ______ ____
ROOT
ATOM      1  C   UNL     1     105.623 144.180 159.445  0.00  0.00    +0.000 C 
ATOM      2  C   UNL     1     106.554 142.441 160.290  0.00  0.00    +0.000 C 
ATOM      3  C   UNL     1     106.262 143.172 160.238  0.00  0.00    +0.000 C 
ATOM      4  C   UNL     1     107.243 142.429 162.385  0.00  0.00    +0.000 C 
ATOM      5  C   UNL     1     106.278 143.688 160.881  0.00  0.00    +0.000 C 
ATOM      6  C   UNL     1     107.555 141.673 162.468  0.00  0.00    +0.000 C 
ATOM      7  C   UNL     1     106.906 142.156 161.038  0.00  0.00    +0.000 C 
ATOM      8  C   UNL     1     105.639 144.696 160.088  0.00  0.00    +0.000 C 
ATOM      9  C   UNL     1     105.935 143.418 159.521  0.00  0.00    +0.000 C 
ATOM     10  C   UNL     1     106.245 142.757 159.708  0.00  0.00    +0.000 C 
ATOM     11  C   UNL     1     107.231 142.005 161.860  0.00  0.00    +0.000 C 
ATOM     12  C   UNL     1     107.887 141.413 163.184  0.00  0.00    +0.000 C 
ATOM     13  C   UNL     1     107.903 141.930 163.827  0.00  0.00    +0.000 C 
ATOM     14  C   UNL     1     107.587 142.692 163.737  0.00  0.00    +0.000 C 
ATOM     15  C   UNL     1     107.259 142.945 163.028  0.00  0.00    +0.000 C 
ATOM     16  C   UNL     1     106.953 143.692 162.950  0.00  0.00    +0.000 C 
ATOM     17  C   UNL     1     106.601 143.983 162.211  0.00  0.00    +0.000 C 
ATOM     18  C   UNL     1     106.585 143.467 161.567  0.00  0.00    +0.000 C 
ATOM     19  C   UNL     1     106.921 142.673 161.681  0.00  0.00    +0.000 C 
ATOM     20  O   UNL     1     108.169 141.735 164.416  0.00  0.00    +0.000 OA
ATOM     21  O   UNL     1     106.014 142.769 159.017  0.00  0.00    +0.000 OA
ENDROOT
BRANCH   9  22
ATOM     22  C   UNL     1     105.608 143.662 158.803  0.00  0.00    +0.000 C 
BRANCH  22  23
ATOM     23  C   UNL     1     105.880 144.351 158.440  0.00  0.00    +0.000 C 
BRANCH  23  24
ATOM     24  C   UNL     1     105.694 144.502 157.650  0.00  0.00    +0.000 C 
ATOM     25  O   UNL     1     106.296 144.661 157.108  0.00  0.00    +0.000 OA
ATOM     26  O   UNL     1     104.907 144.493 157.402  0.00  0.00    +0.000 OA
ENDBRANCH  23  24
ENDBRANCH  22  23
ENDBRANCH   9  22
TORSDOF 3
ENDMDL
MODEL 2
REMARK VINA RESULT:     -13.8      5.549      6.499
REMARK  Name = 
REMARK  3 active torsions:
REMARK  status: ('A' for Active; 'I' for Inactive)
REMARK    1  A    between atoms: C_9  and  C_25
REMARK    2  A    between atoms: C_25  and  C_26
REMARK    3  A    between atoms: C_26  and  C_27
REMARK                            x       y       z     vdW  Elec       q    Type
REMARK                         _______ _______ _______ _____ _____    ______ ____
ROOT
ATOM      1  C   UNL     1     105.595 139.107 161.956  0.00  0.00    +0.000 C 
ATOM      2  C   UNL     1     104.206 137.472 161.911  0.00  0.00    +0.000 C 
ATOM      3  C   UNL     1     104.683 138.029 162.201  0.00  0.00    +0.000 C 
ATOM      4  C   UNL     1     103.459 136.566 163.778  0.00  0.00    +0.000 C 
ATOM      5  C   UNL     1     104.780 138.132 163.014  0.00  0.00    +0.000 C 
ATOM      6  C   UNL     1     102.956 135.977 163.505  0.00  0.00    +0.000 C 
ATOM      7  C   UNL     1     103.764 136.943 162.448  0.00  0.00    +0.000 C 
ATOM      8  C   UNL     1     105.692 139.210 162.768  0.00  0.00    +0.000 C 
ATOM      9  C   UNL     1     105.090 138.516 161.673  0.00  0.00    +0.000 C 
ATOM     10  C   UNL     1     104.609 137.952 161.536  0.00  0.00    +0.000 C 
ATOM     11  C   UNL     1     103.379 136.480 163.114  0.00  0.00    +0.000 C 
ATOM     12  C   UNL     1     102.540 135.480 164.025  0.00  0.00    +0.000 C 
ATOM     13  C   UNL     1     102.638 135.583 164.838  0.00  0.00    +0.000 C 
ATOM     14  C   UNL     1     103.148 136.179 165.109  0.00  0.00    +0.000 C 
ATOM     15  C   UNL     1     103.557 136.669 164.591  0.00  0.00    +0.000 C 
ATOM     16  C   UNL     1     104.053 137.249 164.865  0.00  0.00    +0.000 C 
ATOM     17  C   UNL     1     104.496 137.779 164.338  0.00  0.00    +0.000 C 
ATOM     18  C   UNL     1     104.399 137.676 163.525  0.00  0.00    +0.000 C 
ATOM     19  C   UNL     1     103.861 137.046 163.261  0.00  0.00    +0.000 C 
ATOM     20  O   UNL     1     102.308 135.188 165.275  0.00  0.00    +0.000 OA
ATOM     21  O   UNL     1     104.860 138.257 160.924  0.00  0.00    +0.000 OA
ENDROOT
BRANCH   9  22
ATOM     22  C   UNL     1     105.496 139.002 161.143  0.00  0.00    +0.000 C 
BRANCH  22  23
ATOM     23  C   UNL     1     105.447 139.823 161.217  0.00  0.00    +0.000 C 
BRANCH  23  24
ATOM     24  C   UNL     1     105.663 140.307 160.584  0.00  0.00    +0.000 C 
ATOM     25  O   UNL     1     106.428 140.265 160.276  0.00  0.00    +0.000 OA
ATOM     26  O   UNL     1     105.115 140.832 160.260  0.00  0.00    +0.000 OA
ENDBRANCH  23  24
ENDBRANCH  22  23
ENDBRANCH   9  22
TORSDOF 3
ENDMDL
MODEL 3
REMARK VINA RESULT:     -13.7      0.663      1.390
REMARK  Name = 
REMARK  3 active torsions:
REMARK  status: ('A' for Active; 'I' for Inactive)
REMARK    1  A    between atoms: C_9  and  C_25
REMARK    2  A    between atoms: C_25  and  C_26
REMARK    3  A    between atoms: C_26  and  C_27
REMARK                            x       y       z     vdW  Elec       q    Type
REMARK                         _______ _______ _______ _____ _____    ______ ____
ROOT
ATOM      1  C   UNL     1     105.703 143.728 159.126  0.00  0.00    +0.000 C 
ATOM      2  C   UNL     1     106.207 144.165 161.165  0.00  0.00    +0.000 C 
ATOM      3  C   UNL     1     106.135 143.760 160.492  0.00  0.00    +0.000 C 
ATOM      4  C   UNL     1     107.171 142.649 162.444  0.00  0.00    +0.000 C 
ATOM      5  C   UNL     1     106.396 142.980 160.427  0.00  0.00    +0.000 C 
ATOM      6  C   UNL     1     107.260 143.045 163.159  0.00  0.00    +0.000 C 
ATOM      7  C   UNL     1     106.570 143.793 161.868  0.00  0.00    +0.000 C 
ATOM      8  C   UNL     1     105.965 142.948 159.061  0.00  0.00    +0.000 C 
ATOM      9  C   UNL     1     105.789 144.134 159.841  0.00  0.00    +0.000 C 
ATOM     10  C   UNL     1     105.919 144.397 160.536  0.00  0.00    +0.000 C 
ATOM     11  C   UNL     1     106.958 143.286 162.499  0.00  0.00    +0.000 C 
ATOM     12  C   UNL     1     107.607 142.681 163.821  0.00  0.00    +0.000 C 
ATOM     13  C   UNL     1     107.868 141.901 163.756  0.00  0.00    +0.000 C 
ATOM     14  C   UNL     1     107.776 141.506 163.032  0.00  0.00    +0.000 C 
ATOM     15  C   UNL     1     107.433 141.869 162.380  0.00  0.00    +0.000 C 
ATOM     16  C   UNL     1     107.348 141.474 161.677  0.00  0.00    +0.000 C 
ATOM     17  C   UNL     1     106.988 141.836 160.973  0.00  0.00    +0.000 C 
ATOM     18  C   UNL     1     106.727 142.616 161.037  0.00  0.00    +0.000 C 
ATOM     19  C   UNL     1     106.832 143.013 161.804  0.00  0.00    +0.000 C 
ATOM     20  O   UNL     1     108.152 141.591 164.284  0.00  0.00    +0.000 OA
ATOM     21  O   UNL     1     105.600 144.892 160.106  0.00  0.00    +0.000 OA
ENDROOT
BRANCH   9  22
ATOM     22  C   UNL     1     105.442 144.508 159.192  0.00  0.00    +0.000 C 
BRANCH  22  23
ATOM     23  C   UNL     1     105.837 144.525 158.468  0.00  0.00    +0.000 C 
BRANCH  23  24
ATOM     24  C   UNL     1     105.599 145.055 157.881  0.00  0.00    +0.000 C 
ATOM     25  O   UNL     1     106.127 145.622 157.599  0.00  0.00    +0.000 OA
ATOM     26  O   UNL     1     104.833 145.017 157.577  0.00  0.00    +0.000 OA
ENDBRANCH  23  24
ENDBRANCH  22  23
ENDBRANCH   9  22
TORSDOF 3
ENDMDL
MODEL 4
REMARK VINA RESULT:     -13.7      3.516      5.332
REMARK  Name = 
REMARK  3 active torsions:
REMARK  status: ('A' for Active; 'I' for Inactive)
REMARK    1  A    between atoms: C_9  and  C_25
REMARK    2  A    between atoms: C_25  and  C_26
REMARK    3  A    between atoms: C_26  and  C_27
REMARK                            x       y       z     vdW  Elec       q    Type
REMARK                         _______ _______ _______ _____ _____    ______ ____
ROOT
ATOM      1  C   UNL     1     107.042 141.399 162.630  0.00  0.00    +0.000 C 
ATOM      2  C   UNL     1     106.161 139.733 163.657  0.00  0.00    +0.000 C 
ATOM      3  C   UNL     1     106.362 140.215 163.065  0.00  0.00    +0.000 C 
ATOM      4  C   UNL     1     104.989 138.219 162.563  0.00  0.00    +0.000 C 
ATOM      5  C   UNL     1     106.125 140.067 162.289  0.00  0.00    +0.000 C 
ATOM      6  C   UNL     1     104.764 137.699 163.158  0.00  0.00    +0.000 C 
ATOM      7  C   UNL     1     105.677 139.022 163.503  0.00  0.00    +0.000 C 
ATOM      8  C   UNL     1     106.805 141.251 161.854  0.00  0.00    +0.000 C 
ATOM      9  C   UNL     1     106.821 140.881 163.235  0.00  0.00    +0.000 C 
ATOM     10  C   UNL     1     106.561 140.344 163.696  0.00  0.00    +0.000 C 
ATOM     11  C   UNL     1     105.182 138.338 163.197  0.00  0.00    +0.000 C 
ATOM     12  C   UNL     1     104.304 137.026 163.001  0.00  0.00    +0.000 C 
ATOM     13  C   UNL     1     104.066 136.877 162.225  0.00  0.00    +0.000 C 
ATOM     14  C   UNL     1     104.296 137.406 161.627  0.00  0.00    +0.000 C 
ATOM     15  C   UNL     1     104.751 138.070 161.787  0.00  0.00    +0.000 C 
ATOM     16  C   UNL     1     104.970 138.581 161.196  0.00  0.00    +0.000 C 
ATOM     17  C   UNL     1     105.452 139.290 161.339  0.00  0.00    +0.000 C 
ATOM     18  C   UNL     1     105.689 139.438 162.115  0.00  0.00    +0.000 C 
ATOM     19  C   UNL     1     105.439 138.874 162.727  0.00  0.00    +0.000 C 
ATOM     20  O   UNL     1     103.692 136.336 162.080  0.00  0.00    +0.000 OA
ATOM     21  O   UNL     1     106.949 140.848 164.050  0.00  0.00    +0.000 OA
ENDROOT
BRANCH   9  22
ATOM     22  C   UNL     1     107.279 141.546 163.407  0.00  0.00    +0.000 C 
BRANCH  22  23
ATOM     23  C   UNL     1     106.975 142.301 163.273  0.00  0.00    +0.000 C 
BRANCH  23  24
ATOM     24  C   UNL     1     107.317 142.955 163.644  0.00  0.00    +0.000 C 
ATOM     25  O   UNL     1     106.836 143.547 163.959  0.00  0.00    +0.000 OA
ATOM     26  O   UNL     1     108.137 143.015 163.701  0.00  0.00    +0.000 OA
ENDBRANCH  23  24
ENDBRANCH  22  23
ENDBRANCH   9  22
TORSDOF 3
ENDMDL
MODEL 5
REMARK VINA RESULT:     -13.5      0.802      4.601
REMARK  Name = 
REMARK  3 active torsions:
REMARK  status: ('A' for Active; 'I' for Inactive)
REMARK    1  A    between atoms: C_9  and  C_25
REMARK    2  A    between atoms: C_25  and  C_26
REMARK    3  A    between atoms: C_26  and  C_27
REMARK                            x       y       z     vdW  Elec       q    Type
REMARK                         _______ _______ _______ _____ _____    ______ ____
ROOT
ATOM      1  C   UNL     1     107.167 142.433 162.698  0.00  0.00    +0.000 C 
ATOM      2  C   UNL     1     106.747 142.161 160.611  0.00  0.00    +0.000 C 
ATOM      3  C   UNL     1     106.803 142.514 161.314  0.00  0.00    +0.000 C 
ATOM      4  C   UNL     1     105.911 143.803 159.399  0.00  0.00    +0.000 C 
ATOM      5  C   UNL     1     106.571 143.299 161.421  0.00  0.00    +0.000 C 
ATOM      6  C   UNL     1     105.842 143.461 158.654  0.00  0.00    +0.000 C 
ATOM      7  C   UNL     1     106.435 142.596 159.920  0.00  0.00    +0.000 C 
ATOM      8  C   UNL     1     106.935 143.218 162.805  0.00  0.00    +0.000 C 
ATOM      9  C   UNL     1     107.100 142.082 161.952  0.00  0.00    +0.000 C 
ATOM     10  C   UNL     1     106.994 141.873 161.235  0.00  0.00    +0.000 C 
ATOM     11  C   UNL     1     106.100 143.162 159.309  0.00  0.00    +0.000 C 
ATOM     12  C   UNL     1     105.544 143.885 158.005  0.00  0.00    +0.000 C 
ATOM     13  C   UNL     1     105.312 144.669 158.112  0.00  0.00    +0.000 C 
ATOM     14  C   UNL     1     105.384 145.009 158.866  0.00  0.00    +0.000 C 
ATOM     15  C   UNL     1     105.679 144.587 159.506  0.00  0.00    +0.000 C 
ATOM     16  C   UNL     1     105.746 144.929 160.239  0.00  0.00    +0.000 C 
ATOM     17  C   UNL     1     106.054 144.504 160.931  0.00  0.00    +0.000 C 
ATOM     18  C   UNL     1     106.286 143.719 160.824  0.00  0.00    +0.000 C 
ATOM     19  C   UNL     1     106.203 143.381 160.027  0.00  0.00    +0.000 C 
ATOM     20  O   UNL     1     105.068 145.027 157.595  0.00  0.00    +0.000 OA
ATOM     21  O   UNL     1     107.270 141.336 161.643  0.00  0.00    +0.000 OA
ENDROOT
BRANCH   9  22
ATOM     22  C   UNL     1     107.398 141.649 162.589  0.00  0.00    +0.000 C 
BRANCH  22  23
ATOM     23  C   UNL     1     108.026 141.949 163.033  0.00  0.00    +0.000 C 
BRANCH  23  24
ATOM     24  C   UNL     1     108.418 141.462 163.572  0.00  0.00    +0.000 C 
ATOM     25  O   UNL     1     109.206 141.255 163.442  0.00  0.00    +0.000 OA
ATOM     26  O   UNL     1     108.023 141.183 164.240  0.00  0.00    +0.000 OA
ENDBRANCH  23  24
ENDBRANCH  22  23
ENDBRANCH   9  22
TORSDOF 3
ENDMDL
MODEL 6
REMARK VINA RESULT:     -13.4      4.041      5.826
REMARK  Name = 
REMARK  3 active torsions:
REMARK  status: ('A' for Active; 'I' for Inactive)
REMARK    1  A    between atoms: C_9  and  C_25
REMARK    2  A    between atoms: C_25  and  C_26
REMARK    3  A    between atoms: C_26  and  C_27
REMARK                            x       y       z     vdW  Elec       q    Type
REMARK                         _______ _______ _______ _____ _____    ______ ____
ROOT
ATOM      1  C   UNL     1     104.473 137.469 162.122  0.00  0.00    +0.000 C 
ATOM      2  C   UNL     1     105.636 139.038 163.011  0.00  0.00    +0.000 C 
ATOM      3  C   UNL     1     105.253 138.623 162.460  0.00  0.00    +0.000 C 
ATOM      4  C   UNL     1     106.371 140.730 161.800  0.00  0.00    +0.000 C 
ATOM      5  C   UNL     1     105.218 138.876 161.676  0.00  0.00    +0.000 C 
ATOM      6  C   UNL     1     106.778 141.184 162.352  0.00  0.00    +0.000 C 
ATOM      7  C   UNL     1     106.038 139.786 162.801  0.00  0.00    +0.000 C 
ATOM      8  C   UNL     1     104.438 137.723 161.337  0.00  0.00    +0.000 C 
ATOM      9  C   UNL     1     104.880 137.920 162.683  0.00  0.00    +0.000 C 
ATOM     10  C   UNL     1     105.276 138.409 163.099  0.00  0.00    +0.000 C 
ATOM     11  C   UNL     1     106.400 140.525 162.442  0.00  0.00    +0.000 C 
ATOM     12  C   UNL     1     107.156 141.892 162.141  0.00  0.00    +0.000 C 
ATOM     13  C   UNL     1     107.122 142.146 161.357  0.00  0.00    +0.000 C 
ATOM     14  C   UNL     1     106.709 141.684 160.804  0.00  0.00    +0.000 C 
ATOM     15  C   UNL     1     106.336 140.983 161.016  0.00  0.00    +0.000 C 
ATOM     16  C   UNL     1     105.936 140.539 160.468  0.00  0.00    +0.000 C 
ATOM     17  C   UNL     1     105.533 139.795 160.668  0.00  0.00    +0.000 C 
ATOM     18  C   UNL     1     105.567 139.542 161.452  0.00  0.00    +0.000 C 
ATOM     19  C   UNL     1     106.004 140.039 162.016  0.00  0.00    +0.000 C 
ATOM     20  O   UNL     1     107.424 142.718 161.169  0.00  0.00    +0.000 OA
ATOM     21  O   UNL     1     105.030 137.847 163.491  0.00  0.00    +0.000 OA
ENDROOT
BRANCH   9  22
ATOM     22  C   UNL     1     104.508 137.218 162.907  0.00  0.00    +0.000 C 
BRANCH  22  23
ATOM     23  C   UNL     1     103.685 137.174 162.922  0.00  0.00    +0.000 C 
BRANCH  23  24
ATOM     24  C   UNL     1     103.312 136.554 163.319  0.00  0.00    +0.000 C 
ATOM     25  O   UNL     1     103.210 135.827 162.943  0.00  0.00    +0.000 OA
ATOM     26  O   UNL     1     103.042 136.661 164.091  0.00  0.00    +0.000 OA
ENDBRANCH  23  24
ENDBRANCH  22  23
ENDBRANCH   9  22
TORSDOF 3
ENDMDL
MODEL 7
REMARK VINA RESULT:     -13.1      2.122      5.518
REMARK  Name = 
REMARK  3 active torsions:
REMARK  status: ('A' for Active; 'I' for Inactive)
REMARK    1  A    between atoms: C_9  and  C_25
REMARK    2  A    between atoms: C_25  and  C_26
REMARK    3  A    between atoms: C_26  and  C_27
REMARK                            x       y       z     vdW  Elec       q    Type
REMARK                         _______ _______ _______ _____ _____    ______ ____
ROOT
ATOM      1  C   UNL     1     106.510 141.269 165.474  0.00  0.00    +0.000 C 
ATOM      2  C   UNL     1     106.375 140.363 163.534  0.00  0.00    +0.000 C 
ATOM      3  C   UNL     1     106.472 140.919 164.085  0.00  0.00    +0.000 C 
ATOM      4  C   UNL     1     106.653 141.560 161.702  0.00  0.00    +0.000 C 
ATOM      5  C   UNL     1     106.632 141.703 163.883  0.00  0.00    +0.000 C 
ATOM      6  C   UNL     1     106.556 141.003 161.105  0.00  0.00    +0.000 C 
ATOM      7  C   UNL     1     106.434 140.566 162.685  0.00  0.00    +0.000 C 
ATOM      8  C   UNL     1     106.670 142.053 165.272  0.00  0.00    +0.000 C 
ATOM      9  C   UNL     1     106.412 140.703 164.880  0.00  0.00    +0.000 C 
ATOM     10  C   UNL     1     106.342 140.281 164.259  0.00  0.00    +0.000 C 
ATOM     11  C   UNL     1     106.523 140.919 161.865  0.00  0.00    +0.000 C 
ATOM     12  C   UNL     1     106.615 141.207 160.302  0.00  0.00    +0.000 C 
ATOM     13  C   UNL     1     106.775 141.991 160.100  0.00  0.00    +0.000 C 
ATOM     14  C   UNL     1     106.872 142.549 160.707  0.00  0.00    +0.000 C 
ATOM     15  C   UNL     1     106.813 142.343 161.500  0.00  0.00    +0.000 C 
ATOM     16  C   UNL     1     106.910 142.897 162.085  0.00  0.00    +0.000 C 
ATOM     17  C   UNL     1     106.852 142.704 162.930  0.00  0.00    +0.000 C 
ATOM     18  C   UNL     1     106.692 141.920 163.132  0.00  0.00    +0.000 C 
ATOM     19  C   UNL     1     106.594 141.350 162.483  0.00  0.00    +0.000 C 
ATOM     20  O   UNL     1     106.826 142.174 159.453  0.00  0.00    +0.000 OA
ATOM     21  O   UNL     1     106.252 139.893 164.869  0.00  0.00    +0.000 OA
ENDROOT
BRANCH   9  22
ATOM     22  C   UNL     1     106.351 140.485 165.674  0.00  0.00    +0.000 C 
BRANCH  22  23
ATOM     23  C   UNL     1     105.799 140.857 166.162  0.00  0.00    +0.000 C 
BRANCH  23  24
ATOM     24  C   UNL     1     105.588 140.513 166.882  0.00  0.00    +0.000 C 
ATOM     25  O   UNL     1     104.794 140.372 167.055  0.00  0.00    +0.000 OA
ATOM     26  O   UNL     1     106.171 140.311 167.429  0.00  0.00    +0.000 OA
ENDBRANCH  23  24
ENDBRANCH  22  23
ENDBRANCH   9  22
TORSDOF 3
ENDMDL
MODEL 8
REMARK VINA RESULT:     -13.0      6.109      8.219
REMARK  Name = 
REMARK  3 active torsions:
REMARK  status: ('A' for Active; 'I' for Inactive)
REMARK    1  A    between atoms: C_9  and  C_25
REMARK    2  A    between atoms: C_25  and  C_26
REMARK    3  A    between atoms: C_26  and  C_27
REMARK                            x       y       z     vdW  Elec       q    Type
REMARK                         _______ _______ _______ _____ _____    ______ ____
ROOT
ATOM      1  C   UNL     1     102.696 136.099 164.597  0.00  0.00    +0.000 C 
ATOM      2  C   UNL     1     104.077 137.733 164.428  0.00  0.00    +0.000 C 
ATOM      3  C   UNL     1     103.616 137.129 164.215  0.00  0.00    +0.000 C 
ATOM      4  C   UNL     1     104.913 138.313 162.471  0.00  0.00    +0.000 C 
ATOM      5  C   UNL     1     103.560 136.887 163.428  0.00  0.00    +0.000 C 
ATOM      6  C   UNL     1     105.402 138.945 162.663  0.00  0.00    +0.000 C 
ATOM      7  C   UNL     1     104.544 138.166 163.829  0.00  0.00    +0.000 C 
ATOM      8  C   UNL     1     102.639 135.858 163.810  0.00  0.00    +0.000 C 
ATOM      9  C   UNL     1     103.185 136.735 164.799  0.00  0.00    +0.000 C 
ATOM     10  C   UNL     1     103.657 137.320 164.860  0.00  0.00    +0.000 C 
ATOM     11  C   UNL     1     104.961 138.512 163.113  0.00  0.00    +0.000 C 
ATOM     12  C   UNL     1     105.841 139.350 162.086  0.00  0.00    +0.000 C 
ATOM     13  C   UNL     1     105.785 139.108 161.299  0.00  0.00    +0.000 C 
ATOM     14  C   UNL     1     105.290 138.468 161.111  0.00  0.00    +0.000 C 
ATOM     15  C   UNL     1     104.857 138.071 161.684  0.00  0.00    +0.000 C 
ATOM     16  C   UNL     1     104.376 137.447 161.490  0.00  0.00    +0.000 C 
ATOM     17  C   UNL     1     103.908 137.011 162.078  0.00  0.00    +0.000 C 
ATOM     18  C   UNL     1     103.965 137.252 162.865  0.00  0.00    +0.000 C 
ATOM     19  C   UNL     1     104.488 137.924 163.043  0.00  0.00    +0.000 C 
ATOM     20  O   UNL     1     106.135 139.425 160.818  0.00  0.00    +0.000 OA
ATOM     21  O   UNL     1     103.376 137.122 165.502  0.00  0.00    +0.000 OA
ENDROOT
BRANCH   9  22
ATOM     22  C   UNL     1     102.753 136.343 165.383  0.00  0.00    +0.000 C 
BRANCH  22  23
ATOM     23  C   UNL     1     103.025 135.623 165.682  0.00  0.00    +0.000 C 
BRANCH  23  24
ATOM     24  C   UNL     1     102.671 135.296 166.352  0.00  0.00    +0.000 C 
ATOM     25  O   UNL     1     102.063 134.745 166.270  0.00  0.00    +0.000 OA
ATOM     26  O   UNL     1     102.927 135.519 167.104  0.00  0.00    +0.000 OA
ENDBRANCH  23  24
ENDBRANCH  22  23
ENDBRANCH   9  22
TORSDOF 3
ENDMDL
MODEL 9
REMARK VINA RESULT:     -13.0      1.182      4.978
REMARK  Name = 
REMARK  3 active torsions:
REMARK  status: ('A' for Active; 'I' for Inactive)
REMARK    1  A    between atoms: C_9  and  C_25
REMARK    2  A    between atoms: C_25  and  C_26
REMARK    3  A    between atoms: C_26  and  C_27
REMARK                            x       y       z     vdW  Elec       q    Type
REMARK                         _______ _______ _______ _____ _____    ______ ____
ROOT
ATOM      1  C   UNL     1     107.068 141.888 164.012  0.00  0.00    +0.000 C 
ATOM      2  C   UNL     1     106.478 143.532 162.764  0.00  0.00    +0.000 C 
ATOM      3  C   UNL     1     106.703 142.804 162.972  0.00  0.00    +0.000 C 
ATOM      4  C   UNL     1     106.318 143.295 160.577  0.00  0.00    +0.000 C 
ATOM      5  C   UNL     1     106.812 142.210 162.410  0.00  0.00    +0.000 C 
ATOM      6  C   UNL     1     106.083 144.043 160.331  0.00  0.00    +0.000 C 
ATOM      7  C   UNL     1     106.336 143.728 161.924  0.00  0.00    +0.000 C 
ATOM      8  C   UNL     1     107.176 141.294 163.450  0.00  0.00    +0.000 C 
ATOM      9  C   UNL     1     106.831 142.643 163.772  0.00  0.00    +0.000 C 
ATOM     10  C   UNL     1     106.617 143.284 163.438  0.00  0.00    +0.000 C 
ATOM     11  C   UNL     1     106.229 143.782 161.035  0.00  0.00    +0.000 C 
ATOM     12  C   UNL     1     105.951 144.218 159.530  0.00  0.00    +0.000 C 
ATOM     13  C   UNL     1     106.059 143.624 158.968  0.00  0.00    +0.000 C 
ATOM     14  C   UNL     1     106.297 142.870 159.222  0.00  0.00    +0.000 C 
ATOM     15  C   UNL     1     106.427 142.700 160.015  0.00  0.00    +0.000 C 
ATOM     16  C   UNL     1     106.659 141.961 160.254  0.00  0.00    +0.000 C 
ATOM     17  C   UNL     1     106.802 141.757 161.086  0.00  0.00    +0.000 C 
ATOM     18  C   UNL     1     106.694 142.351 161.648  0.00  0.00    +0.000 C 
ATOM     19  C   UNL     1     106.444 143.134 161.363  0.00  0.00    +0.000 C 
ATOM     20  O   UNL     1     105.957 143.749 158.313  0.00  0.00    +0.000 OA
ATOM     21  O   UNL     1     106.672 143.354 164.160  0.00  0.00    +0.000 OA
ENDROOT
BRANCH   9  22
ATOM     22  C   UNL     1     106.958 142.484 164.572  0.00  0.00    +0.000 C 
BRANCH  22  23
ATOM     23  C   UNL     1     106.502 141.914 164.956  0.00  0.00    +0.000 C 
BRANCH  23  24
ATOM     24  C   UNL     1     106.408 141.945 165.776  0.00  0.00    +0.000 C 
ATOM     25  O   UNL     1     107.048 141.782 166.270  0.00  0.00    +0.000 OA
ATOM     26  O   UNL     1     105.674 142.139 166.100  0.00  0.00    +0.000 OA
ENDBRANCH  23  24
ENDBRANCH  22  23
ENDBRANCH   9  22
TORSDOF 3
ENDMDL
MODEL 10
REMARK VINA RESULT:     -12.5      2.014      3.180
REMARK  Name = 
REMARK  3 active torsions:
REMARK  status: ('A' for Active; 'I' for Inactive)
REMARK    1  A    between atoms: C_9  and  C_25
REMARK    2  A    between atoms: C_25  and  C_26
REMARK    3  A    between atoms: C_26  and  C_27
REMARK                            x       y       z     vdW  Elec       q    Type
REMARK                         _______ _______ _______ _____ _____    ______ ____
ROOT
ATOM      1  C   UNL     1     106.972 142.377 161.601  0.00  0.00    +0.000 C 
ATOM      2  C   UNL     1     106.503 140.705 162.861  0.00  0.00    +0.000 C 
ATOM      3  C   UNL     1     106.677 141.444 162.648  0.00  0.00    +0.000 C 
ATOM      4  C   UNL     1     106.343 140.943 165.048  0.00  0.00    +0.000 C 
ATOM      5  C   UNL     1     106.750 142.048 163.206  0.00  0.00    +0.000 C 
ATOM      6  C   UNL     1     106.161 140.182 165.300  0.00  0.00    +0.000 C 
ATOM      7  C   UNL     1     106.381 140.504 163.703  0.00  0.00    +0.000 C 
ATOM      8  C   UNL     1     107.044 142.980 162.158  0.00  0.00    +0.000 C 
ATOM      9  C   UNL     1     106.789 141.608 161.846  0.00  0.00    +0.000 C 
ATOM     10  C   UNL     1     106.620 140.957 162.186  0.00  0.00    +0.000 C 
ATOM     11  C   UNL     1     106.284 140.449 164.594  0.00  0.00    +0.000 C 
ATOM     12  C   UNL     1     106.046 140.003 166.103  0.00  0.00    +0.000 C 
ATOM     13  C   UNL     1     106.118 140.607 166.661  0.00  0.00    +0.000 C 
ATOM     14  C   UNL     1     106.303 141.373 166.401  0.00  0.00    +0.000 C 
ATOM     15  C   UNL     1     106.415 141.547 165.606  0.00  0.00    +0.000 C 
ATOM     16  C   UNL     1     106.595 142.299 165.362  0.00  0.00    +0.000 C 
ATOM     17  C   UNL     1     106.718 142.507 164.527  0.00  0.00    +0.000 C 
ATOM     18  C   UNL     1     106.646 141.904 163.969  0.00  0.00    +0.000 C 
ATOM     19  C   UNL     1     106.453 141.108 164.261  0.00  0.00    +0.000 C 
ATOM     20  O   UNL     1     106.029 140.479 167.317  0.00  0.00    +0.000 OA
ATOM     21  O   UNL     1     106.675 140.887 161.463  0.00  0.00    +0.000 OA
ENDROOT
BRANCH   9  22
ATOM     22  C   UNL     1     106.900 141.772 161.044  0.00  0.00    +0.000 C 
BRANCH  22  23
ATOM     23  C   UNL     1     106.411 142.316 160.663  0.00  0.00    +0.000 C 
BRANCH  23  24
ATOM     24  C   UNL     1     106.336 142.299 159.841  0.00  0.00    +0.000 C 
ATOM     25  O   UNL     1     107.002 142.176 159.370  0.00  0.00    +0.000 OA
ATOM     26  O   UNL     1     105.597 142.404 159.491  0.00  0.00    +0.000 OA
ENDBRANCH  23  24
ENDBRANCH  22  23
ENDBRANCH   9  22
TORSDOF 3
ENDMDL
MODEL 11
REMARK VINA RESULT:     -12.5     36.726     37.269
REMARK  Name = 
REMARK  3 active torsions:
REMARK  status: ('A' for Active; 'I' for Inactive)
REMARK    1  A    between atoms: C_9  and  C_25
REMARK    2  A    between atoms: C_25  and  C_26
REMARK    3  A    between atoms: C_26  and  C_27
REMARK                            x       y       z     vdW  Elec       q    Type
REMARK                         _______ _______ _______ _____ _____    ______ ____
ROOT
ATOM      1  C   UNL     1     106.868 127.335 195.022  0.00  0.00    +0.000 C 
ATOM      2  C   UNL     1     105.913 126.153 193.507  0.00  0.00    +0.000 C 
ATOM      3  C   UNL     1     106.444 126.375 194.047  0.00  0.00    +0.000 C 
ATOM      4  C   UNL     1     106.798 124.251 192.826  0.00  0.00    +0.000 C 
ATOM      5  C   UNL     1     107.110 125.915 194.210  0.00  0.00    +0.000 C 
ATOM      6  C   UNL     1     106.262 123.995 192.259  0.00  0.00    +0.000 C 
ATOM      7  C   UNL     1     106.017 125.407 193.064  0.00  0.00    +0.000 C 
ATOM      8  C   UNL     1     107.534 126.876 195.185  0.00  0.00    +0.000 C 
ATOM      9  C   UNL     1     106.324 127.084 194.453  0.00  0.00    +0.000 C 
ATOM     10  C   UNL     1     105.903 126.756 193.920  0.00  0.00    +0.000 C 
ATOM     11  C   UNL     1     106.254 124.625 192.692  0.00  0.00    +0.000 C 
ATOM     12  C   UNL     1     106.371 123.284 191.843  0.00  0.00    +0.000 C 
ATOM     13  C   UNL     1     107.037 122.824 192.006  0.00  0.00    +0.000 C 
ATOM     14  C   UNL     1     107.576 123.088 192.580  0.00  0.00    +0.000 C 
ATOM     15  C   UNL     1     107.464 123.792 192.989  0.00  0.00    +0.000 C 
ATOM     16  C   UNL     1     107.996 124.041 193.548  0.00  0.00    +0.000 C 
ATOM     17  C   UNL     1     107.901 124.781 193.994  0.00  0.00    +0.000 C 
ATOM     18  C   UNL     1     107.235 125.240 193.831  0.00  0.00    +0.000 C 
ATOM     19  C   UNL     1     106.683 124.948 193.227  0.00  0.00    +0.000 C 
ATOM     20  O   UNL     1     107.141 122.245 191.678  0.00  0.00    +0.000 OA
ATOM     21  O   UNL     1     105.617 127.385 194.151  0.00  0.00    +0.000 OA
ENDROOT
BRANCH   9  22
ATOM     22  C   UNL     1     106.202 127.793 194.858  0.00  0.00    +0.000 C 
BRANCH  22  23
ATOM     23  C   UNL     1     106.742 128.411 194.777  0.00  0.00    +0.000 C 
BRANCH  23  24
ATOM     24  C   UNL     1     106.530 129.176 195.006  0.00  0.00    +0.000 C 
ATOM     25  O   UNL     1     106.472 129.774 194.441  0.00  0.00    +0.000 OA
ATOM     26  O   UNL     1     106.377 129.341 195.800  0.00  0.00    +0.000 OA
ENDBRANCH  23  24
ENDBRANCH  22  23
ENDBRANCH   9  22
TORSDOF 3
ENDMDL
MODEL 12
REMARK VINA RESULT:     -12.5     36.337     37.117
REMARK  Name = 
REMARK  3 active torsions:
REMARK  status: ('A' for Active; 'I' for Inactive)
REMARK    1  A    between atoms: C_9  and  C_25
REMARK    2  A    between atoms: C_25  and  C_26
REMARK    3  A    between atoms: C_26  and  C_27
REMARK                            x       y       z     vdW  Elec       q    Type
REMARK                         _______ _______ _______ _____ _____    ______ ____
ROOT
ATOM      1  C   UNL     1     107.375 123.037 192.258  0.00  0.00    +0.000 C 
ATOM      2  C   UNL     1     106.098 124.748 192.477  0.00  0.00    +0.000 C 
ATOM      3  C   UNL     1     106.693 124.247 192.611  0.00  0.00    +0.000 C 
ATOM      4  C   UNL     1     106.484 126.259 194.037  0.00  0.00    +0.000 C 
ATOM      5  C   UNL     1     107.240 124.380 193.214  0.00  0.00    +0.000 C 
ATOM      6  C   UNL     1     105.876 126.799 193.920  0.00  0.00    +0.000 C 
ATOM      7  C   UNL     1     106.005 125.466 192.967  0.00  0.00    +0.000 C 
ATOM      8  C   UNL     1     107.923 123.170 192.860  0.00  0.00    +0.000 C 
ATOM      9  C   UNL     1     106.760 123.576 192.134  0.00  0.00    +0.000 C 
ATOM     10  C   UNL     1     106.249 124.130 192.117  0.00  0.00    +0.000 C 
ATOM     11  C   UNL     1     106.036 126.152 193.545  0.00  0.00    +0.000 C 
ATOM     12  C   UNL     1     105.797 127.478 194.393  0.00  0.00    +0.000 C 
ATOM     13  C   UNL     1     106.345 127.611 194.995  0.00  0.00    +0.000 C 
ATOM     14  C   UNL     1     106.957 127.062 195.108  0.00  0.00    +0.000 C 
ATOM     15  C   UNL     1     107.032 126.392 194.639  0.00  0.00    +0.000 C 
ATOM     16  C   UNL     1     107.634 125.862 194.758  0.00  0.00    +0.000 C 
ATOM     17  C   UNL     1     107.735 125.146 194.275  0.00  0.00    +0.000 C 
ATOM     18  C   UNL     1     107.187 125.013 193.673  0.00  0.00    +0.000 C 
ATOM     19  C   UNL     1     106.553 125.599 193.570  0.00  0.00    +0.000 C 
ATOM     20  O   UNL     1     106.295 128.157 195.388  0.00  0.00    +0.000 OA
ATOM     21  O   UNL     1     106.129 123.627 191.605  0.00  0.00    +0.000 OA
ENDROOT
BRANCH   9  22
ATOM     22  C   UNL     1     106.826 122.906 191.657  0.00  0.00    +0.000 C 
BRANCH  22  23
ATOM     23  C   UNL     1     107.524 122.764 191.241  0.00  0.00    +0.000 C 
BRANCH  23  24
ATOM     24  C   UNL     1     107.533 122.213 190.626  0.00  0.00    +0.000 C 
ATOM     25  O   UNL     1     107.689 122.459 189.854  0.00  0.00    +0.000 OA
ATOM     26  O   UNL     1     107.385 121.417 190.783  0.00  0.00    +0.000 OA
ENDBRANCH  23  24
ENDBRANCH  22  23
ENDBRANCH   9  22
TORSDOF 3
ENDMDL
MODEL 13
REMARK VINA RESULT:     -12.3     36.418     39.488
REMARK  Name = 
REMARK  3 active torsions:
REMARK  status: ('A' for Active; 'I' for Inactive)
REMARK    1  A    between atoms: C_9  and  C_25
REMARK    2  A    between atoms: C_25  and  C_26
REMARK    3  A    between atoms: C_26  and  C_27
REMARK                            x       y       z     vdW  Elec       q    Type
REMARK                         _______ _______ _______ _____ _____    ______ ____
ROOT
ATOM      1  C   UNL     1     118.766 109.719 180.979  0.00  0.00    +0.000 C 
ATOM      2  C   UNL     1     116.927 109.676 179.873  0.00  0.00    +0.000 C 
ATOM      3  C   UNL     1     117.534 109.962 180.288  0.00  0.00    +0.000 C 
ATOM      4  C   UNL     1     115.769 111.521 179.525  0.00  0.00    +0.000 C 
ATOM      5  C   UNL     1     117.590 110.765 180.471  0.00  0.00    +0.000 C 
ATOM      6  C   UNL     1     115.126 111.251 179.091  0.00  0.00    +0.000 C 
ATOM      7  C   UNL     1     116.292 110.207 179.593  0.00  0.00    +0.000 C 
ATOM      8  C   UNL     1     118.822 110.522 181.161  0.00  0.00    +0.000 C 
ATOM      9  C   UNL     1     118.122 109.440 180.542  0.00  0.00    +0.000 C 
ATOM     10  C   UNL     1     117.496 109.305 180.143  0.00  0.00    +0.000 C 
ATOM     11  C   UNL     1     115.722 110.865 179.375  0.00  0.00    +0.000 C 
ATOM     12  C   UNL     1     114.528 111.765 178.830  0.00  0.00    +0.000 C 
ATOM     13  C   UNL     1     114.584 112.568 179.012  0.00  0.00    +0.000 C 
ATOM     14  C   UNL     1     115.236 112.835 179.451  0.00  0.00    +0.000 C 
ATOM     15  C   UNL     1     115.825 112.323 179.708  0.00  0.00    +0.000 C 
ATOM     16  C   UNL     1     116.458 112.594 180.136  0.00  0.00    +0.000 C 
ATOM     17  C   UNL     1     117.094 112.073 180.419  0.00  0.00    +0.000 C 
ATOM     18  C   UNL     1     117.038 111.270 180.236  0.00  0.00    +0.000 C 
ATOM     19  C   UNL     1     116.348 111.010 179.776  0.00  0.00    +0.000 C 
ATOM     20  O   UNL     1     114.107 112.999 178.808  0.00  0.00    +0.000 OA
ATOM     21  O   UNL     1     117.885 108.701 180.263  0.00  0.00    +0.000 OA
ENDROOT
BRANCH   9  22
ATOM     22  C   UNL     1     118.708 108.917 180.795  0.00  0.00    +0.000 C 
BRANCH  22  23
ATOM     23  C   UNL     1     119.497 109.057 180.598  0.00  0.00    +0.000 C 
BRANCH  23  24
ATOM     24  C   UNL     1     120.055 108.453 180.678  0.00  0.00    +0.000 C 
ATOM     25  O   UNL     1     120.547 108.261 180.044  0.00  0.00    +0.000 OA
ATOM     26  O   UNL     1     120.120 108.043 181.391  0.00  0.00    +0.000 OA
ENDBRANCH  23  24
ENDBRANCH  22  23
ENDBRANCH   9  22
TORSDOF 3
ENDMDL
MODEL 14
REMARK VINA RESULT:     -12.1     73.410     75.553
REMARK  Name = 
REMARK  3 active torsions:
REMARK  status: ('A' for Active; 'I' for Inactive)
REMARK    1  A    between atoms: C_9  and  C_25
REMARK    2  A    between atoms: C_25  and  C_26
REMARK    3  A    between atoms: C_26  and  C_27
REMARK                            x       y       z     vdW  Elec       q    Type
REMARK                         _______ _______ _______ _____ _____    ______ ____
ROOT
ATOM      1  C   UNL     1     133.083 145.427  89.073  0.00  0.00    +0.000 C 
ATOM      2  C   UNL     1     130.964 145.270  88.767  0.00  0.00    +0.000 C 
ATOM      3  C   UNL     1     131.677 145.148  89.083  0.00  0.00    +0.000 C 
ATOM      4  C   UNL     1     129.726 143.975  90.054  0.00  0.00    +0.000 C 
ATOM      5  C   UNL     1     131.782 144.641  89.726  0.00  0.00    +0.000 C 
ATOM      6  C   UNL     1     128.971 144.083  89.746  0.00  0.00    +0.000 C 
ATOM      7  C   UNL     1     130.261 144.867  89.094  0.00  0.00    +0.000 C 
ATOM      8  C   UNL     1     133.188 144.920  89.715  0.00  0.00    +0.000 C 
ATOM      9  C   UNL     1     132.327 145.540  88.757  0.00  0.00    +0.000 C 
ATOM     10  C   UNL     1     131.600 145.564  88.559  0.00  0.00    +0.000 C 
ATOM     11  C   UNL     1     129.638 144.389  89.529  0.00  0.00    +0.000 C 
ATOM     12  C   UNL     1     128.310 143.694  90.065  0.00  0.00    +0.000 C 
ATOM     13  C   UNL     1     128.415 143.187  90.707  0.00  0.00    +0.000 C 
ATOM     14  C   UNL     1     129.179 143.083  91.014  0.00  0.00    +0.000 C 
ATOM     15  C   UNL     1     129.831 143.469  90.696  0.00  0.00    +0.000 C 
ATOM     16  C   UNL     1     130.574 143.359  91.004  0.00  0.00    +0.000 C 
ATOM     17  C   UNL     1     131.279 143.756  90.686  0.00  0.00    +0.000 C 
ATOM     18  C   UNL     1     131.174 144.263  90.044  0.00  0.00    +0.000 C 
ATOM     19  C   UNL     1     130.366 144.360  89.736  0.00  0.00    +0.000 C 
ATOM     20  O   UNL     1     127.889 142.864  90.977  0.00  0.00    +0.000 OA
ATOM     21  O   UNL     1     132.016 145.988  88.138  0.00  0.00    +0.000 OA
ENDROOT
BRANCH   9  22
ATOM     22  C   UNL     1     132.975 145.933  88.431  0.00  0.00    +0.000 C 
BRANCH  22  23
ATOM     23  C   UNL     1     133.437 146.428  88.902  0.00  0.00    +0.000 C 
BRANCH  23  24
ATOM     24  C   UNL     1     133.970 146.952  88.551  0.00  0.00    +0.000 C 
ATOM     25  O   UNL     1     133.889 147.764  88.673  0.00  0.00    +0.000 OA
ATOM     26  O   UNL     1     134.583 146.664  88.080  0.00  0.00    +0.000 OA
ENDBRANCH  23  24
ENDBRANCH  22  23
ENDBRANCH   9  22
TORSDOF 3
ENDMDL
MODEL 15
REMARK VINA RESULT:     -11.8     37.113     39.402
REMARK  Name = 
REMARK  3 active torsions:
REMARK  status: ('A' for Active; 'I' for Inactive)
REMARK    1  A    between atoms: C_9  and  C_25
REMARK    2  A    between atoms: C_25  and  C_26
REMARK    3  A    between atoms: C_26  and  C_27
REMARK                            x       y       z     vdW  Elec       q    Type
REMARK                         _______ _______ _______ _____ _____    ______ ____
ROOT
ATOM      1  C   UNL     1     135.011 119.267 164.728  0.00  0.00    +0.000 C 
ATOM      2  C   UNL     1     136.474 117.832 165.363  0.00  0.00    +0.000 C 
ATOM      3  C   UNL     1     136.075 118.321 164.889  0.00  0.00    +0.000 C 
ATOM      4  C   UNL     1     137.970 117.036 163.950  0.00  0.00    +0.000 C 
ATOM      5  C   UNL     1     136.276 118.411 164.094  0.00  0.00    +0.000 C 
ATOM      6  C   UNL     1     138.404 116.519 164.418  0.00  0.00    +0.000 C 
ATOM      7  C   UNL     1     137.147 117.368 165.053  0.00  0.00    +0.000 C 
ATOM      8  C   UNL     1     135.212 119.357 163.933  0.00  0.00    +0.000 C 
ATOM      9  C   UNL     1     135.443 118.749 165.206  0.00  0.00    +0.000 C 
ATOM     10  C   UNL     1     135.904 118.253 165.538  0.00  0.00    +0.000 C 
ATOM     11  C   UNL     1     137.807 116.961 164.599  0.00  0.00    +0.000 C 
ATOM     12  C   UNL     1     139.042 116.083 164.113  0.00  0.00    +0.000 C 
ATOM     13  C   UNL     1     139.243 116.173 163.318  0.00  0.00    +0.000 C 
ATOM     14  C   UNL     1     138.801 116.697 162.849  0.00  0.00    +0.000 C 
ATOM     15  C   UNL     1     138.171 117.126 163.155  0.00  0.00    +0.000 C 
ATOM     16  C   UNL     1     137.745 117.636 162.689  0.00  0.00    +0.000 C 
ATOM     17  C   UNL     1     137.075 118.101 162.988  0.00  0.00    +0.000 C 
ATOM     18  C   UNL     1     136.874 118.011 163.783  0.00  0.00    +0.000 C 
ATOM     19  C   UNL     1     137.348 117.458 164.258  0.00  0.00    +0.000 C 
ATOM     20  O   UNL     1     139.757 115.826 163.054  0.00  0.00    +0.000 OA
ATOM     21  O   UNL     1     135.407 118.521 165.998  0.00  0.00    +0.000 OA
ENDROOT
BRANCH   9  22
ATOM     22  C   UNL     1     134.811 119.176 165.523  0.00  0.00    +0.000 C 
BRANCH  22  23
ATOM     23  C   UNL     1     134.089 119.198 165.126  0.00  0.00    +0.000 C 
BRANCH  23  24
ATOM     24  C   UNL     1     133.413 119.471 165.515  0.00  0.00    +0.000 C 
ATOM     25  O   UNL     1     132.788 118.955 165.665  0.00  0.00    +0.000 OA
ATOM     26  O   UNL     1     133.364 120.260 165.752  0.00  0.00    +0.000 OA
ENDBRANCH  23  24
ENDBRANCH  22  23
ENDBRANCH   9  22
TORSDOF 3
ENDMDL
MODEL 16
REMARK VINA RESULT:     -11.7     73.393     75.826
REMARK  Name = 
REMARK  3 active torsions:
REMARK  status: ('A' for Active; 'I' for Inactive)
REMARK    1  A    between atoms: C_9  and  C_25
REMARK    2  A    between atoms: C_25  and  C_26
REMARK    3  A    between atoms: C_26  and  C_27
REMARK                            x       y       z     vdW  Elec       q    Type
REMARK                         _______ _______ _______ _____ _____    ______ ____
ROOT
ATOM      1  C   UNL     1     129.877 143.637  90.458  0.00  0.00    +0.000 C 
ATOM      2  C   UNL     1     130.686 144.345  88.601  0.00  0.00    +0.000 C 
ATOM      3  C   UNL     1     130.641 144.170  89.369  0.00  0.00    +0.000 C 
ATOM      4  C   UNL     1     132.721 145.191  88.500  0.00  0.00    +0.000 C 
ATOM      5  C   UNL     1     131.269 144.319  89.883  0.00  0.00    +0.000 C 
ATOM      6  C   UNL     1     132.797 145.385  87.705  0.00  0.00    +0.000 C 
ATOM      7  C   UNL     1     131.411 144.707  88.272  0.00  0.00    +0.000 C 
ATOM      8  C   UNL     1     130.505 143.786  90.972  0.00  0.00    +0.000 C 
ATOM      9  C   UNL     1     129.946 143.829  89.657  0.00  0.00    +0.000 C 
ATOM     10  C   UNL     1     130.123 144.044  88.956  0.00  0.00    +0.000 C 
ATOM     11  C   UNL     1     132.209 145.070  88.079  0.00  0.00    +0.000 C 
ATOM     12  C   UNL     1     133.490 145.728  87.403  0.00  0.00    +0.000 C 
ATOM     13  C   UNL     1     134.118 145.878  87.916  0.00  0.00    +0.000 C 
ATOM     14  C   UNL     1     134.036 145.680  88.718  0.00  0.00    +0.000 C 
ATOM     15  C   UNL     1     133.349 145.341  89.014  0.00  0.00    +0.000 C 
ATOM     16  C   UNL     1     133.278 145.151  89.799  0.00  0.00    +0.000 C 
ATOM     17  C   UNL     1     132.562 144.791  90.135  0.00  0.00    +0.000 C 
ATOM     18  C   UNL     1     131.934 144.642  89.622  0.00  0.00    +0.000 C 
ATOM     19  C   UNL     1     132.039 144.856  88.785  0.00  0.00    +0.000 C 
ATOM     20  O   UNL     1     134.688 146.156  87.688  0.00  0.00    +0.000 OA
ATOM     21  O   UNL     1     129.452 143.764  88.999  0.00  0.00    +0.000 OA
ENDROOT
BRANCH   9  22
ATOM     22  C   UNL     1     129.250 143.488  89.943  0.00  0.00    +0.000 C 
BRANCH  22  23
ATOM     23  C   UNL     1     128.841 143.846  90.563  0.00  0.00    +0.000 C 
BRANCH  23  24
ATOM     24  C   UNL     1     128.049 143.657  90.698  0.00  0.00    +0.000 C 
ATOM     25  O   UNL     1     127.472 144.244  90.651  0.00  0.00    +0.000 OA
ATOM     26  O   UNL     1     127.835 142.881  90.880  0.00  0.00    +0.000 OA
ENDBRANCH  23  24
ENDBRANCH  22  23
ENDBRANCH   9  22
TORSDOF 3
ENDMDL
MODEL 17
REMARK VINA RESULT:     -11.4     76.020     77.013
REMARK  Name = 
REMARK  3 active torsions:
REMARK  status: ('A' for Active; 'I' for Inactive)
REMARK    1  A    between atoms: C_9  and  C_25
REMARK    2  A    between atoms: C_25  and  C_26
REMARK    3  A    between atoms: C_26  and  C_27
REMARK                            x       y       z     vdW  Elec       q    Type
REMARK                         _______ _______ _______ _____ _____    ______ ____
ROOT
ATOM      1  C   UNL     1     130.371 142.197  87.418  0.00  0.00    +0.000 C 
ATOM      2  C   UNL     1     130.545 143.884  88.732  0.00  0.00    +0.000 C 
ATOM      3  C   UNL     1     130.559 143.461  88.067  0.00  0.00    +0.000 C 
ATOM      4  C   UNL     1     131.143 145.863  87.964  0.00  0.00    +0.000 C 
ATOM      5  C   UNL     1     130.762 143.802  87.344  0.00  0.00    +0.000 C 
ATOM      6  C   UNL     1     131.138 146.330  88.641  0.00  0.00    +0.000 C 
ATOM      7  C   UNL     1     130.748 144.735  88.720  0.00  0.00    +0.000 C 
ATOM      8  C   UNL     1     130.575 142.538  86.695  0.00  0.00    +0.000 C 
ATOM      9  C   UNL     1     130.363 142.659  88.104  0.00  0.00    +0.000 C 
ATOM     10  C   UNL     1     130.391 143.175  88.653  0.00  0.00    +0.000 C 
ATOM     11  C   UNL     1     130.977 145.587  88.556  0.00  0.00    +0.000 C 
ATOM     12  C   UNL     1     131.333 147.137  88.618  0.00  0.00    +0.000 C 
ATOM     13  C   UNL     1     131.537 147.478  87.894  0.00  0.00    +0.000 C 
ATOM     14  C   UNL     1     131.540 147.002  87.214  0.00  0.00    +0.000 C 
ATOM     15  C   UNL     1     131.347 146.204  87.241  0.00  0.00    +0.000 C 
ATOM     16  C   UNL     1     131.354 145.748  86.570  0.00  0.00    +0.000 C 
ATOM     17  C   UNL     1     131.154 144.902  86.573  0.00  0.00    +0.000 C 
ATOM     18  C   UNL     1     130.950 144.562  87.296  0.00  0.00    +0.000 C 
ATOM     19  C   UNL     1     130.952 145.075  87.997  0.00  0.00    +0.000 C 
ATOM     20  O   UNL     1     131.697 148.131  87.858  0.00  0.00    +0.000 OA
ATOM     21  O   UNL     1     130.194 142.518  88.899  0.00  0.00    +0.000 OA
ENDROOT
BRANCH   9  22
ATOM     22  C   UNL     1     130.167 141.858  88.142  0.00  0.00    +0.000 C 
BRANCH  22  23
ATOM     23  C   UNL     1     130.689 141.292  87.845  0.00  0.00    +0.000 C 
BRANCH  23  24
ATOM     24  C   UNL     1     130.582 140.495  88.032  0.00  0.00    +0.000 C 
ATOM     25  O   UNL     1     131.113 140.117  88.538  0.00  0.00    +0.000 OA
ATOM     26  O   UNL     1     129.946 140.078  87.714  0.00  0.00    +0.000 OA
ENDBRANCH  23  24
ENDBRANCH  22  23
ENDBRANCH   9  22
TORSDOF 3
ENDMDL
MODEL 18
REMARK VINA RESULT:     -11.4     74.164     77.126
REMARK  Name = 
REMARK  3 active torsions:
REMARK  status: ('A' for Active; 'I' for Inactive)
REMARK    1  A    between atoms: C_9  and  C_25
REMARK    2  A    between atoms: C_25  and  C_26
REMARK    3  A    between atoms: C_26  and  C_27
REMARK                            x       y       z     vdW  Elec       q    Type
REMARK                         _______ _______ _______ _____ _____    ______ ____
ROOT
ATOM      1  C   UNL     1     130.171 143.871  89.671  0.00  0.00    +0.000 C 
ATOM      2  C   UNL     1     130.408 143.315  87.612  0.00  0.00    +0.000 C 
ATOM      3  C   UNL     1     130.421 143.759  88.264  0.00  0.00    +0.000 C 
ATOM      4  C   UNL     1     131.181 144.755  86.130  0.00  0.00    +0.000 C 
ATOM      5  C   UNL     1     130.680 144.542  88.248  0.00  0.00    +0.000 C 
ATOM      6  C   UNL     1     131.179 144.318  85.434  0.00  0.00    +0.000 C 
ATOM      7  C   UNL     1     130.672 143.646  86.847  0.00  0.00    +0.000 C 
ATOM      8  C   UNL     1     130.431 144.654  89.654  0.00  0.00    +0.000 C 
ATOM      9  C   UNL     1     130.166 143.424  88.975  0.00  0.00    +0.000 C 
ATOM     10  C   UNL     1     130.207 143.120  88.286  0.00  0.00    +0.000 C 
ATOM     11  C   UNL     1     130.969 144.116  86.142  0.00  0.00    +0.000 C 
ATOM     12  C   UNL     1     131.432 144.642  84.713  0.00  0.00    +0.000 C 
ATOM     13  C   UNL     1     131.692 145.425  84.697  0.00  0.00    +0.000 C 
ATOM     14  C   UNL     1     131.691 145.863  85.402  0.00  0.00    +0.000 C 
ATOM     15  C   UNL     1     131.440 145.538  86.114  0.00  0.00    +0.000 C 
ATOM     16  C   UNL     1     131.444 145.974  86.798  0.00  0.00    +0.000 C 
ATOM     17  C   UNL     1     131.183 145.654  87.563  0.00  0.00    +0.000 C 
ATOM     18  C   UNL     1     130.924 144.871  87.579  0.00  0.00    +0.000 C 
ATOM     19  C   UNL     1     130.932 144.429  86.830  0.00  0.00    +0.000 C 
ATOM     20  O   UNL     1     131.901 145.705  84.119  0.00  0.00    +0.000 OA
ATOM     21  O   UNL     1     129.953 142.651  88.782  0.00  0.00    +0.000 OA
ENDROOT
BRANCH   9  22
ATOM     22  C   UNL     1     129.912 143.088  89.685  0.00  0.00    +0.000 C 
BRANCH  22  23
ATOM     23  C   UNL     1     129.305 143.444  90.115  0.00  0.00    +0.000 C 
BRANCH  23  24
ATOM     24  C   UNL     1     128.939 143.033  90.730  0.00  0.00    +0.000 C 
ATOM     25  O   UNL     1     129.397 142.674  91.315  0.00  0.00    +0.000 OA
ATOM     26  O   UNL     1     128.116 142.981  90.760  0.00  0.00    +0.000 OA
ENDBRANCH  23  24
ENDBRANCH  22  23
ENDBRANCH   9  22
TORSDOF 3
ENDMDL
MODEL 19
REMARK VINA RESULT:     -11.4     76.003     76.971
REMARK  Name = 
REMARK  3 active torsions:
REMARK  status: ('A' for Active; 'I' for Inactive)
REMARK    1  A    between atoms: C_9  and  C_25
REMARK    2  A    between atoms: C_25  and  C_26
REMARK    3  A    between atoms: C_26  and  C_27
REMARK                            x       y       z     vdW  Elec       q    Type
REMARK                         _______ _______ _______ _____ _____    ______ ____
ROOT
ATOM      1  C   UNL     1     131.302 146.738  87.435  0.00  0.00    +0.000 C 
ATOM      2  C   UNL     1     130.818 145.141  88.784  0.00  0.00    +0.000 C 
ATOM      3  C   UNL     1     130.994 145.512  88.110  0.00  0.00    +0.000 C 
ATOM      4  C   UNL     1     130.623 143.066  88.061  0.00  0.00    +0.000 C 
ATOM      5  C   UNL     1     131.056 145.103  87.396  0.00  0.00    +0.000 C 
ATOM      6  C   UNL     1     130.439 142.652  88.747  0.00  0.00    +0.000 C 
ATOM      7  C   UNL     1     130.683 144.277  88.791  0.00  0.00    +0.000 C 
ATOM      8  C   UNL     1     131.364 146.329  86.721  0.00  0.00    +0.000 C 
ATOM      9  C   UNL     1     131.117 146.329  88.130  0.00  0.00    +0.000 C 
ATOM     10  C   UNL     1     130.946 145.854  88.689  0.00  0.00    +0.000 C 
ATOM     11  C   UNL     1     130.572 143.398  88.645  0.00  0.00    +0.000 C 
ATOM     12  C   UNL     1     130.312 141.831  88.741  0.00  0.00    +0.000 C 
ATOM     13  C   UNL     1     130.374 141.422  88.027  0.00  0.00    +0.000 C 
ATOM     14  C   UNL     1     130.560 141.845  87.338  0.00  0.00    +0.000 C 
ATOM     15  C   UNL     1     130.685 142.657  87.347  0.00  0.00    +0.000 C 
ATOM     16  C   UNL     1     130.866 143.061  86.668  0.00  0.00    +0.000 C 
ATOM     17  C   UNL     1     131.002 143.920  86.652  0.00  0.00    +0.000 C 
ATOM     18  C   UNL     1     130.941 144.328  87.366  0.00  0.00    +0.000 C 
ATOM     19  C   UNL     1     130.745 143.868  88.077  0.00  0.00    +0.000 C 
ATOM     20  O   UNL     1     130.274 140.756  88.005  0.00  0.00    +0.000 OA
ATOM     21  O   UNL     1     131.012 146.541  88.920  0.00  0.00    +0.000 OA
ENDROOT
BRANCH   9  22
ATOM     22  C   UNL     1     131.240 147.145  88.150  0.00  0.00    +0.000 C 
BRANCH  22  23
ATOM     23  C   UNL     1     131.966 147.458  87.915  0.00  0.00    +0.000 C 
BRANCH  23  24
ATOM     24  C   UNL     1     132.164 148.235  88.112  0.00  0.00    +0.000 C 
ATOM     25  O   UNL     1     132.881 148.396  88.486  0.00  0.00    +0.000 OA
ATOM     26  O   UNL     1     131.643 148.850  87.935  0.00  0.00    +0.000 OA
ENDBRANCH  23  24
ENDBRANCH  22  23
ENDBRANCH   9  22
TORSDOF 3
ENDMDL
MODEL 20
REMARK VINA RESULT:     -11.3     74.449     77.304
REMARK  Name = 
REMARK  3 active torsions:
REMARK  status: ('A' for Active; 'I' for Inactive)
REMARK    1  A    between atoms: C_9  and  C_25
REMARK    2  A    between atoms: C_25  and  C_26
REMARK    3  A    between atoms: C_26  and  C_27
REMARK                            x       y       z     vdW  Elec       q    Type
REMARK                         _______ _______ _______ _____ _____    ______ ____
ROOT
ATOM      1  C   UNL     1     131.673 145.204  85.957  0.00  0.00    +0.000 C 
ATOM      2  C   UNL     1     130.692 143.527  86.869  0.00  0.00    +0.000 C 
ATOM      3  C   UNL     1     131.040 144.232  86.799  0.00  0.00    +0.000 C 
ATOM      4  C   UNL     1     130.243 143.513  89.028  0.00  0.00    +0.000 C 
ATOM      5  C   UNL     1     131.142 144.729  87.449  0.00  0.00    +0.000 C 
ATOM      6  C   UNL     1     129.877 142.785  89.132  0.00  0.00    +0.000 C 
ATOM      7  C   UNL     1     130.403 143.252  87.647  0.00  0.00    +0.000 C 
ATOM      8  C   UNL     1     131.775 145.701  86.608  0.00  0.00    +0.000 C 
ATOM      9  C   UNL     1     131.306 144.469  86.053  0.00  0.00    +0.000 C 
ATOM     10  C   UNL     1     130.961 143.832  86.262  0.00  0.00    +0.000 C 
ATOM     11  C   UNL     1     130.159 143.106  88.498  0.00  0.00    +0.000 C 
ATOM     12  C   UNL     1     129.605 142.534  89.876  0.00  0.00    +0.000 C 
ATOM     13  C   UNL     1     129.707 143.031  90.527  0.00  0.00    +0.000 C 
ATOM     14  C   UNL     1     130.077 143.765  90.416  0.00  0.00    +0.000 C 
ATOM     15  C   UNL     1     130.345 144.010  89.679  0.00  0.00    +0.000 C 
ATOM     16  C   UNL     1     130.705 144.730  89.581  0.00  0.00    +0.000 C 
ATOM     17  C   UNL     1     130.996 145.011  88.812  0.00  0.00    +0.000 C 
ATOM     18  C   UNL     1     130.894 144.514  88.162  0.00  0.00    +0.000 C 
ATOM     19  C   UNL     1     130.504 143.749  88.297  0.00  0.00    +0.000 C 
ATOM     20  O   UNL     1     129.493 142.843  91.138  0.00  0.00    +0.000 OA
ATOM     21  O   UNL     1     131.113 143.845  85.550  0.00  0.00    +0.000 OA
ENDROOT
BRANCH   9  22
ATOM     22  C   UNL     1     131.570 144.705  85.308  0.00  0.00    +0.000 C 
BRANCH  22  23
ATOM     23  C   UNL     1     131.277 145.396  84.966  0.00  0.00    +0.000 C 
BRANCH  23  24
ATOM     24  C   UNL     1     131.366 145.526  84.156  0.00  0.00    +0.000 C 
ATOM     25  O   UNL     1     130.730 145.807  83.711  0.00  0.00    +0.000 OA
ATOM     26  O   UNL     1     132.090 145.374  83.791  0.00  0.00    +0.000 OA
ENDBRANCH  23  24
ENDBRANCH  22  23
ENDBRANCH   9  22
TORSDOF 3
ENDMDL
