MODEL 1
REMARK VINA RESULT:      -7.7      0.000      0.000
REMARK  Name = 
REMARK  3 active torsions:
REMARK  status: ('A' for Active; 'I' for Inactive)
REMARK    1  A    between atoms: C_1  and  N_2
REMARK    2  A    between atoms: C_1  and  C_3
REMARK    3  A    between atoms: C_3  and  C_4
REMARK                            x       y       z     vdW  Elec       q    Type
REMARK                         _______ _______ _______ _____ _____    ______ ____
ROOT
ATOM      1  C   UNL     1     129.474 142.333  90.625  0.00  0.00    +0.000 C 
ENDROOT
BRANCH   1   2
ATOM      2  C   UNL     1     129.946 142.586  91.091  0.00  0.00    +0.000 A 
ATOM      3  C   UNL     1     130.600 142.750  90.871  0.00  0.00    +0.000 A 
ATOM      4  C   UNL     1     129.767 142.674  91.774  0.00  0.00    +0.000 A 
ATOM      5  C   UNL     1     131.073 143.002  91.333  0.00  0.00    +0.000 A 
ATOM      6  C   UNL     1     130.241 142.927  92.235  0.00  0.00    +0.000 A 
ATOM      7  C   UNL     1     130.893 143.090  92.016  0.00  0.00    +0.000 A 
ENDBRANCH   1   2
BRANCH   1   8
ATOM      8  C   UNL     1     128.961 142.757  90.383  0.00  0.00    +0.000 C 
ATOM      9  C   UNL     1     128.485 142.358  90.726  0.00  0.00    +0.000 C 
ATOM     10  C   UNL     1     128.280 142.925  90.344  0.00  0.00    +0.000 C 
BRANCH   8  11
ATOM     11  N   UNL     1     129.126 143.307  89.969  0.00  0.00    +0.000 NA
ATOM     12  C   UNL     1     128.681 143.507  89.451  0.00  0.00    +0.000 C 
ENDBRANCH   8  11
ENDBRANCH   1   8
TORSDOF 3
ENDMDL
MODEL 2
REMARK VINA RESULT:      -7.4      7.069      7.562
REMARK  Name = 
REMARK  3 active torsions:
REMARK  status: ('A' for Active; 'I' for Inactive)
REMARK    1  A    between atoms: C_1  and  N_2
REMARK    2  A    between atoms: C_1  and  C_3
REMARK    3  A    between atoms: C_3  and  C_4
REMARK                            x       y       z     vdW  Elec       q    Type
REMARK                         _______ _______ _______ _____ _____    ______ ____
ROOT
ATOM      1  C   UNL     1     133.909 136.658  93.249  0.00  0.00    +0.000 C 
ENDROOT
BRANCH   1   2
ATOM      2  C   UNL     1     133.325 136.749  93.640  0.00  0.00    +0.000 A 
ATOM      3  C   UNL     1     132.750 136.358  93.506  0.00  0.00    +0.000 A 
ATOM      4  C   UNL     1     133.314 137.231  94.164  0.00  0.00    +0.000 A 
ATOM      5  C   UNL     1     132.165 136.447  93.894  0.00  0.00    +0.000 A 
ATOM      6  C   UNL     1     132.728 137.319  94.552  0.00  0.00    +0.000 A 
ATOM      7  C   UNL     1     132.154 136.928  94.418  0.00  0.00    +0.000 A 
ENDBRANCH   1   2
BRANCH   1   8
ATOM      8  C   UNL     1     133.949 136.951  92.605  0.00  0.00    +0.000 C 
ATOM      9  C   UNL     1     133.893 136.305  92.318  0.00  0.00    +0.000 C 
ATOM     10  C   UNL     1     133.956 136.884  91.906  0.00  0.00    +0.000 C 
BRANCH   8  11
ATOM     11  N   UNL     1     134.017 137.654  92.544  0.00  0.00    +0.000 NA
ATOM     12  C   UNL     1     134.400 137.927  92.010  0.00  0.00    +0.000 C 
ENDBRANCH   8  11
ENDBRANCH   1   8
TORSDOF 3
ENDMDL
MODEL 3
REMARK VINA RESULT:      -7.4     88.709     89.543
REMARK  Name = 
REMARK  3 active torsions:
REMARK  status: ('A' for Active; 'I' for Inactive)
REMARK    1  A    between atoms: C_1  and  N_2
REMARK    2  A    between atoms: C_1  and  C_3
REMARK    3  A    between atoms: C_3  and  C_4
REMARK                            x       y       z     vdW  Elec       q    Type
REMARK                         _______ _______ _______ _____ _____    ______ ____
ROOT
ATOM      1  C   UNL     1     146.817 125.580 177.302  0.00  0.00    +0.000 C 
ENDROOT
BRANCH   1   2
ATOM      2  C   UNL     1     147.360 125.142 177.177  0.00  0.00    +0.000 A 
ATOM      3  C   UNL     1     147.429 124.552 177.563  0.00  0.00    +0.000 A 
ATOM      4  C   UNL     1     147.835 125.292 176.668  0.00  0.00    +0.000 A 
ATOM      5  C   UNL     1     147.970 124.112 177.441  0.00  0.00    +0.000 A 
ATOM      6  C   UNL     1     148.376 124.852 176.547  0.00  0.00    +0.000 A 
ATOM      7  C   UNL     1     148.444 124.263 176.931  0.00  0.00    +0.000 A 
ENDBRANCH   1   2
BRANCH   1   8
ATOM      8  C   UNL     1     146.251 125.566 176.876  0.00  0.00    +0.000 C 
ATOM      9  C   UNL     1     146.449 126.193 176.609  0.00  0.00    +0.000 C 
ATOM     10  C   UNL     1     145.860 125.866 176.375  0.00  0.00    +0.000 C 
BRANCH   8  11
ATOM     11  N   UNL     1     145.806 125.015 176.902  0.00  0.00    +0.000 NA
ATOM     12  C   UNL     1     145.110 125.117 176.795  0.00  0.00    +0.000 C 
ENDBRANCH   8  11
ENDBRANCH   1   8
TORSDOF 3
ENDMDL
MODEL 4
REMARK VINA RESULT:      -7.2     77.804     78.899
REMARK  Name = 
REMARK  3 active torsions:
REMARK  status: ('A' for Active; 'I' for Inactive)
REMARK    1  A    between atoms: C_1  and  N_2
REMARK    2  A    between atoms: C_1  and  C_3
REMARK    3  A    between atoms: C_3  and  C_4
REMARK                            x       y       z     vdW  Elec       q    Type
REMARK                         _______ _______ _______ _____ _____    ______ ____
ROOT
ATOM      1  C   UNL     1     141.343 115.458 163.869  0.00  0.00    +0.000 C 
ENDROOT
BRANCH   1   2
ATOM      2  C   UNL     1     141.857 115.091 164.192  0.00  0.00    +0.000 A 
ATOM      3  C   UNL     1     141.717 114.445 164.446  0.00  0.00    +0.000 A 
ATOM      4  C   UNL     1     142.509 115.369 164.261  0.00  0.00    +0.000 A 
ATOM      5  C   UNL     1     142.227 114.076 164.769  0.00  0.00    +0.000 A 
ATOM      6  C   UNL     1     143.018 114.999 164.584  0.00  0.00    +0.000 A 
ATOM      7  C   UNL     1     142.879 114.354 164.838  0.00  0.00    +0.000 A 
ENDBRANCH   1   2
BRANCH   1   8
ATOM      8  C   UNL     1     141.327 115.490 163.162  0.00  0.00    +0.000 C 
ATOM      9  C   UNL     1     141.542 116.165 163.197  0.00  0.00    +0.000 C 
ATOM     10  C   UNL     1     141.421 115.853 162.567  0.00  0.00    +0.000 C 
BRANCH   8  11
ATOM     11  N   UNL     1     141.133 114.919 162.789  0.00  0.00    +0.000 NA
ATOM     12  C   UNL     1     140.753 114.998 162.193  0.00  0.00    +0.000 C 
ENDBRANCH   8  11
ENDBRANCH   1   8
TORSDOF 3
ENDMDL
MODEL 5
REMARK VINA RESULT:      -7.1      7.417      7.879
REMARK  Name = 
REMARK  3 active torsions:
REMARK  status: ('A' for Active; 'I' for Inactive)
REMARK    1  A    between atoms: C_1  and  N_2
REMARK    2  A    between atoms: C_1  and  C_3
REMARK    3  A    between atoms: C_3  and  C_4
REMARK                            x       y       z     vdW  Elec       q    Type
REMARK                         _______ _______ _______ _____ _____    ______ ____
ROOT
ATOM      1  C   UNL     1     133.572 137.118  93.175  0.00  0.00    +0.000 C 
ENDROOT
BRANCH   1   2
ATOM      2  C   UNL     1     134.240 137.183  93.403  0.00  0.00    +0.000 A 
ATOM      3  C   UNL     1     134.439 137.775  93.737  0.00  0.00    +0.000 A 
ATOM      4  C   UNL     1     134.709 136.658  93.299  0.00  0.00    +0.000 A 
ATOM      5  C   UNL     1     135.105 137.843  93.966  0.00  0.00    +0.000 A 
ATOM      6  C   UNL     1     135.375 136.727  93.529  0.00  0.00    +0.000 A 
ATOM      7  C   UNL     1     135.574 137.318  93.862  0.00  0.00    +0.000 A 
ENDBRANCH   1   2
BRANCH   1   8
ATOM      8  C   UNL     1     133.107 136.745  93.556  0.00  0.00    +0.000 C 
ATOM      9  C   UNL     1     133.110 136.246  93.052  0.00  0.00    +0.000 C 
ATOM     10  C   UNL     1     132.706 136.173  93.635  0.00  0.00    +0.000 C 
BRANCH   8  11
ATOM     11  N   UNL     1     132.879 136.997  94.178  0.00  0.00    +0.000 NA
ATOM     12  C   UNL     1     132.210 136.875  94.386  0.00  0.00    +0.000 C 
ENDBRANCH   8  11
ENDBRANCH   1   8
TORSDOF 3
ENDMDL
MODEL 6
REMARK VINA RESULT:      -7.1     80.335     80.955
REMARK  Name = 
REMARK  3 active torsions:
REMARK  status: ('A' for Active; 'I' for Inactive)
REMARK    1  A    between atoms: C_1  and  N_2
REMARK    2  A    between atoms: C_1  and  C_3
REMARK    3  A    between atoms: C_3  and  C_4
REMARK                            x       y       z     vdW  Elec       q    Type
REMARK                         _______ _______ _______ _____ _____    ______ ____
ROOT
ATOM      1  C   UNL     1     141.912 112.772 164.826  0.00  0.00    +0.000 C 
ENDROOT
BRANCH   1   2
ATOM      2  C   UNL     1     141.230 112.727 165.017  0.00  0.00    +0.000 A 
ATOM      3  C   UNL     1     140.741 113.085 164.651  0.00  0.00    +0.000 A 
ATOM      4  C   UNL     1     141.037 112.324 165.571  0.00  0.00    +0.000 A 
ATOM      5  C   UNL     1     140.060 113.043 164.839  0.00  0.00    +0.000 A 
ATOM      6  C   UNL     1     140.355 112.282 165.758  0.00  0.00    +0.000 A 
ATOM      7  C   UNL     1     139.867 112.640 165.393  0.00  0.00    +0.000 A 
ENDBRANCH   1   2
BRANCH   1   8
ATOM      8  C   UNL     1     142.336 113.235 165.152  0.00  0.00    +0.000 C 
ATOM      9  C   UNL     1     142.664 112.695 165.473  0.00  0.00    +0.000 C 
ATOM     10  C   UNL     1     142.866 113.368 165.593  0.00  0.00    +0.000 C 
BRANCH   8  11
ATOM     11  N   UNL     1     142.256 113.929 165.030  0.00  0.00    +0.000 NA
ATOM     12  C   UNL     1     142.828 114.352 165.005  0.00  0.00    +0.000 C 
ENDBRANCH   8  11
ENDBRANCH   1   8
TORSDOF 3
ENDMDL
MODEL 7
REMARK VINA RESULT:      -7.0      7.168      7.816
REMARK  Name = 
REMARK  3 active torsions:
REMARK  status: ('A' for Active; 'I' for Inactive)
REMARK    1  A    between atoms: C_1  and  N_2
REMARK    2  A    between atoms: C_1  and  C_3
REMARK    3  A    between atoms: C_3  and  C_4
REMARK                            x       y       z     vdW  Elec       q    Type
REMARK                         _______ _______ _______ _____ _____    ______ ____
ROOT
ATOM      1  C   UNL     1     136.126 139.621  93.615  0.00  0.00    +0.000 C 
ENDROOT
BRANCH   1   2
ATOM      2  C   UNL     1     135.661 139.146  93.863  0.00  0.00    +0.000 A 
ATOM      3  C   UNL     1     135.044 139.368  94.131  0.00  0.00    +0.000 A 
ATOM      4  C   UNL     1     135.812 138.450  93.844  0.00  0.00    +0.000 A 
ATOM      5  C   UNL     1     134.578 138.897  94.379  0.00  0.00    +0.000 A 
ATOM      6  C   UNL     1     135.344 137.980  94.093  0.00  0.00    +0.000 A 
ATOM      7  C   UNL     1     134.728 138.202  94.360  0.00  0.00    +0.000 A 
ENDBRANCH   1   2
BRANCH   1   8
ATOM      8  C   UNL     1     136.329 139.591  92.938  0.00  0.00    +0.000 C 
ATOM      9  C   UNL     1     136.994 139.472  93.152  0.00  0.00    +0.000 C 
ATOM     10  C   UNL     1     136.835 139.506  92.458  0.00  0.00    +0.000 C 
BRANCH   8  11
ATOM     11  N   UNL     1     135.849 139.679  92.423  0.00  0.00    +0.000 NA
ATOM     12  C   UNL     1     136.045 139.962  91.801  0.00  0.00    +0.000 C 
ENDBRANCH   8  11
ENDBRANCH   1   8
TORSDOF 3
ENDMDL
MODEL 8
REMARK VINA RESULT:      -7.0     80.239     80.933
REMARK  Name = 
REMARK  3 active torsions:
REMARK  status: ('A' for Active; 'I' for Inactive)
REMARK    1  A    between atoms: C_1  and  N_2
REMARK    2  A    between atoms: C_1  and  C_3
REMARK    3  A    between atoms: C_3  and  C_4
REMARK                            x       y       z     vdW  Elec       q    Type
REMARK                         _______ _______ _______ _____ _____    ______ ____
ROOT
ATOM      1  C   UNL     1     141.278 112.704 164.689  0.00  0.00    +0.000 C 
ENDROOT
BRANCH   1   2
ATOM      2  C   UNL     1     141.860 113.001 164.966  0.00  0.00    +0.000 A 
ATOM      3  C   UNL     1     141.998 113.684 164.838  0.00  0.00    +0.000 A 
ATOM      4  C   UNL     1     142.302 112.618 165.371  0.00  0.00    +0.000 A 
ATOM      5  C   UNL     1     142.577 113.983 165.113  0.00  0.00    +0.000 A 
ATOM      6  C   UNL     1     142.881 112.918 165.646  0.00  0.00    +0.000 A 
ATOM      7  C   UNL     1     143.019 113.600 165.518  0.00  0.00    +0.000 A 
ENDBRANCH   1   2
BRANCH   1   8
ATOM      8  C   UNL     1     140.662 112.754 165.033  0.00  0.00    +0.000 C 
ATOM      9  C   UNL     1     140.440 113.222 164.550  0.00  0.00    +0.000 C 
ATOM     10  C   UNL     1     140.018 113.030 165.091  0.00  0.00    +0.000 C 
BRANCH   8  11
ATOM     11  N   UNL     1     140.556 112.371 165.620  0.00  0.00    +0.000 NA
ATOM     12  C   UNL     1     139.909 112.110 165.761  0.00  0.00    +0.000 C 
ENDBRANCH   8  11
ENDBRANCH   1   8
TORSDOF 3
ENDMDL
MODEL 9
REMARK VINA RESULT:      -6.9      0.771      2.279
REMARK  Name = 
REMARK  3 active torsions:
REMARK  status: ('A' for Active; 'I' for Inactive)
REMARK    1  A    between atoms: C_1  and  N_2
REMARK    2  A    between atoms: C_1  and  C_3
REMARK    3  A    between atoms: C_3  and  C_4
REMARK                            x       y       z     vdW  Elec       q    Type
REMARK                         _______ _______ _______ _____ _____    ______ ____
ROOT
ATOM      1  C   UNL     1     129.797 143.110  91.511  0.00  0.00    +0.000 C 
ENDROOT
BRANCH   1   2
ATOM      2  C   UNL     1     129.311 142.815  91.086  0.00  0.00    +0.000 A 
ATOM      3  C   UNL     1     128.991 143.211  90.594  0.00  0.00    +0.000 A 
ATOM      4  C   UNL     1     129.146 142.125  91.153  0.00  0.00    +0.000 A 
ATOM      5  C   UNL     1     128.506 142.919  90.169  0.00  0.00    +0.000 A 
ATOM      6  C   UNL     1     128.661 141.835  90.727  0.00  0.00    +0.000 A 
ATOM      7  C   UNL     1     128.341 142.230  90.236  0.00  0.00    +0.000 A 
ENDBRANCH   1   2
BRANCH   1   8
ATOM      8  C   UNL     1     130.483 142.971  91.407  0.00  0.00    +0.000 C 
ATOM      9  C   UNL     1     130.513 142.682  92.053  0.00  0.00    +0.000 C 
ATOM     10  C   UNL     1     131.092 142.708  91.638  0.00  0.00    +0.000 C 
BRANCH   8  11
ATOM     11  N   UNL     1     130.789 143.156  90.794  0.00  0.00    +0.000 NA
ATOM     12  C   UNL     1     131.476 143.341  90.784  0.00  0.00    +0.000 C 
ENDBRANCH   8  11
ENDBRANCH   1   8
TORSDOF 3
ENDMDL
MODEL 10
REMARK VINA RESULT:      -6.9      7.512      7.908
REMARK  Name = 
REMARK  3 active torsions:
REMARK  status: ('A' for Active; 'I' for Inactive)
REMARK    1  A    between atoms: C_1  and  N_2
REMARK    2  A    between atoms: C_1  and  C_3
REMARK    3  A    between atoms: C_3  and  C_4
REMARK                            x       y       z     vdW  Elec       q    Type
REMARK                         _______ _______ _______ _____ _____    ______ ____
ROOT
ATOM      1  C   UNL     1     135.990 138.199  93.553  0.00  0.00    +0.000 C 
ENDROOT
BRANCH   1   2
ATOM      2  C   UNL     1     136.223 138.868  93.594  0.00  0.00    +0.000 A 
ATOM      3  C   UNL     1     136.763 139.075  93.185  0.00  0.00    +0.000 A 
ATOM      4  C   UNL     1     135.918 139.329  94.043  0.00  0.00    +0.000 A 
ATOM      5  C   UNL     1     136.998 139.741  93.223  0.00  0.00    +0.000 A 
ATOM      6  C   UNL     1     136.154 139.995  94.080  0.00  0.00    +0.000 A 
ATOM      7  C   UNL     1     136.693 140.202  93.672  0.00  0.00    +0.000 A 
ENDBRANCH   1   2
BRANCH   1   8
ATOM      8  C   UNL     1     135.357 138.066  93.264  0.00  0.00    +0.000 C 
ATOM      9  C   UNL     1     135.116 137.876  93.903  0.00  0.00    +0.000 C 
ATOM     10  C   UNL     1     134.690 137.857  93.331  0.00  0.00    +0.000 C 
BRANCH   8  11
ATOM     11  N   UNL     1     135.261 138.167  92.568  0.00  0.00    +0.000 NA
ATOM     12  C   UNL     1     134.840 137.727  92.202  0.00  0.00    +0.000 C 
ENDBRANCH   8  11
ENDBRANCH   1   8
TORSDOF 3
ENDMDL
MODEL 11
REMARK VINA RESULT:      -6.9     77.773     78.295
REMARK  Name = 
REMARK  3 active torsions:
REMARK  status: ('A' for Active; 'I' for Inactive)
REMARK    1  A    between atoms: C_1  and  N_2
REMARK    2  A    between atoms: C_1  and  C_3
REMARK    3  A    between atoms: C_3  and  C_4
REMARK                            x       y       z     vdW  Elec       q    Type
REMARK                         _______ _______ _______ _____ _____    ______ ____
ROOT
ATOM      1  C   UNL     1     140.239 115.662 162.942  0.00  0.00    +0.000 C 
ENDROOT
BRANCH   1   2
ATOM      2  C   UNL     1     140.852 115.580 163.289  0.00  0.00    +0.000 A 
ATOM      3  C   UNL     1     141.325 116.108 163.293  0.00  0.00    +0.000 A 
ATOM      4  C   UNL     1     140.994 114.973 163.632  0.00  0.00    +0.000 A 
ATOM      5  C   UNL     1     141.937 116.030 163.638  0.00  0.00    +0.000 A 
ATOM      6  C   UNL     1     141.608 114.896 163.977  0.00  0.00    +0.000 A 
ATOM      7  C   UNL     1     142.079 115.423 163.981  0.00  0.00    +0.000 A 
ENDBRANCH   1   2
BRANCH   1   8
ATOM      8  C   UNL     1     139.634 115.706 163.307  0.00  0.00    +0.000 C 
ATOM      9  C   UNL     1     139.439 115.078 163.042  0.00  0.00    +0.000 C 
ATOM     10  C   UNL     1     139.014 115.432 163.491  0.00  0.00    +0.000 C 
BRANCH   8  11
ATOM     11  N   UNL     1     139.511 116.273 163.714  0.00  0.00    +0.000 NA
ATOM     12  C   UNL     1     138.849 116.526 163.778  0.00  0.00    +0.000 C 
ENDBRANCH   8  11
ENDBRANCH   1   8
TORSDOF 3
ENDMDL
MODEL 12
REMARK VINA RESULT:      -6.9     77.645     78.230
REMARK  Name = 
REMARK  3 active torsions:
REMARK  status: ('A' for Active; 'I' for Inactive)
REMARK    1  A    between atoms: C_1  and  N_2
REMARK    2  A    between atoms: C_1  and  C_3
REMARK    3  A    between atoms: C_3  and  C_4
REMARK                            x       y       z     vdW  Elec       q    Type
REMARK                         _______ _______ _______ _____ _____    ______ ____
ROOT
ATOM      1  C   UNL     1     138.937 115.682 163.264  0.00  0.00    +0.000 C 
ENDROOT
BRANCH   1   2
ATOM      2  C   UNL     1     138.493 116.072 163.657  0.00  0.00    +0.000 A 
ATOM      3  C   UNL     1     138.327 116.728 163.447  0.00  0.00    +0.000 A 
ATOM      4  C   UNL     1     138.216 115.808 164.257  0.00  0.00    +0.000 A 
ATOM      5  C   UNL     1     137.885 117.120 163.836  0.00  0.00    +0.000 A 
ATOM      6  C   UNL     1     137.773 116.201 164.645  0.00  0.00    +0.000 A 
ATOM      7  C   UNL     1     137.608 116.856 164.437  0.00  0.00    +0.000 A 
ENDBRANCH   1   2
BRANCH   1   8
ATOM      8  C   UNL     1     139.601 115.579 163.485  0.00  0.00    +0.000 C 
ATOM      9  C   UNL     1     139.448 114.897 163.600  0.00  0.00    +0.000 C 
ATOM     10  C   UNL     1     140.100 115.151 163.734  0.00  0.00    +0.000 C 
BRANCH   8  11
ATOM     11  N   UNL     1     140.057 116.123 163.493  0.00  0.00    +0.000 NA
ATOM     12  C   UNL     1     140.745 116.010 163.353  0.00  0.00    +0.000 C 
ENDBRANCH   8  11
ENDBRANCH   1   8
TORSDOF 3
ENDMDL
MODEL 13
REMARK VINA RESULT:      -6.7      5.156      5.652
REMARK  Name = 
REMARK  3 active torsions:
REMARK  status: ('A' for Active; 'I' for Inactive)
REMARK    1  A    between atoms: C_1  and  N_2
REMARK    2  A    between atoms: C_1  and  C_3
REMARK    3  A    between atoms: C_3  and  C_4
REMARK                            x       y       z     vdW  Elec       q    Type
REMARK                         _______ _______ _______ _____ _____    ______ ____
ROOT
ATOM      1  C   UNL     1     130.604 138.594  87.771  0.00  0.00    +0.000 C 
ENDROOT
BRANCH   1   2
ATOM      2  C   UNL     1     131.238 138.385  87.532  0.00  0.00    +0.000 A 
ATOM      3  C   UNL     1     131.796 138.395  87.969  0.00  0.00    +0.000 A 
ATOM      4  C   UNL     1     131.316 138.166  86.859  0.00  0.00    +0.000 A 
ATOM      5  C   UNL     1     132.430 138.187  87.734  0.00  0.00    +0.000 A 
ATOM      6  C   UNL     1     131.951 137.958  86.625  0.00  0.00    +0.000 A 
ATOM      7  C   UNL     1     132.508 137.968  87.061  0.00  0.00    +0.000 A 
ENDBRANCH   1   2
BRANCH   1   8
ATOM      8  C   UNL     1     130.400 139.265  87.679  0.00  0.00    +0.000 C 
ATOM      9  C   UNL     1     129.933 139.046  87.192  0.00  0.00    +0.000 C 
ATOM     10  C   UNL     1     129.991 139.737  87.357  0.00  0.00    +0.000 C 
BRANCH   8  11
ATOM     11  N   UNL     1     130.706 139.781  88.057  0.00  0.00    +0.000 NA
ATOM     12  C   UNL     1     130.317 140.331  88.286  0.00  0.00    +0.000 C 
ENDBRANCH   8  11
ENDBRANCH   1   8
TORSDOF 3
ENDMDL
MODEL 14
REMARK VINA RESULT:      -6.6      7.063      7.667
REMARK  Name = 
REMARK  3 active torsions:
REMARK  status: ('A' for Active; 'I' for Inactive)
REMARK    1  A    between atoms: C_1  and  N_2
REMARK    2  A    between atoms: C_1  and  C_3
REMARK    3  A    between atoms: C_3  and  C_4
REMARK                            x       y       z     vdW  Elec       q    Type
REMARK                         _______ _______ _______ _____ _____    ______ ____
ROOT
ATOM      1  C   UNL     1     134.621 136.970  89.037  0.00  0.00    +0.000 C 
ENDROOT
BRANCH   1   2
ATOM      2  C   UNL     1     134.441 137.085  89.714  0.00  0.00    +0.000 A 
ATOM      3  C   UNL     1     134.880 136.882  90.231  0.00  0.00    +0.000 A 
ATOM      4  C   UNL     1     133.823 137.401  89.873  0.00  0.00    +0.000 A 
ATOM      5  C   UNL     1     134.703 136.995  90.907  0.00  0.00    +0.000 A 
ATOM      6  C   UNL     1     133.647 137.513  90.550  0.00  0.00    +0.000 A 
ATOM      7  C   UNL     1     134.085 137.311  91.066  0.00  0.00    +0.000 A 
ENDBRANCH   1   2
BRANCH   1   8
ATOM      8  C   UNL     1     134.861 137.508  88.643  0.00  0.00    +0.000 C 
ATOM      9  C   UNL     1     134.246 137.510  88.290  0.00  0.00    +0.000 C 
ATOM     10  C   UNL     1     134.762 137.974  88.127  0.00  0.00    +0.000 C 
BRANCH   8  11
ATOM     11  N   UNL     1     135.511 137.765  88.760  0.00  0.00    +0.000 NA
ATOM     12  C   UNL     1     135.907 137.985  88.212  0.00  0.00    +0.000 C 
ENDBRANCH   8  11
ENDBRANCH   1   8
TORSDOF 3
ENDMDL
MODEL 15
REMARK VINA RESULT:      -6.6      5.331      5.985
REMARK  Name = 
REMARK  3 active torsions:
REMARK  status: ('A' for Active; 'I' for Inactive)
REMARK    1  A    between atoms: C_1  and  N_2
REMARK    2  A    between atoms: C_1  and  C_3
REMARK    3  A    between atoms: C_3  and  C_4
REMARK                            x       y       z     vdW  Elec       q    Type
REMARK                         _______ _______ _______ _____ _____    ______ ____
ROOT
ATOM      1  C   UNL     1     130.997 138.305  87.390  0.00  0.00    +0.000 C 
ENDROOT
BRANCH   1   2
ATOM      2  C   UNL     1     130.729 138.961  87.368  0.00  0.00    +0.000 A 
ATOM      3  C   UNL     1     130.435 139.199  86.769  0.00  0.00    +0.000 A 
ATOM      4  C   UNL     1     130.752 139.379  87.944  0.00  0.00    +0.000 A 
ATOM      5  C   UNL     1     130.167 139.853  86.744  0.00  0.00    +0.000 A 
ATOM      6  C   UNL     1     130.483 140.033  87.918  0.00  0.00    +0.000 A 
ATOM      7  C   UNL     1     130.190 140.271  87.320  0.00  0.00    +0.000 A 
ENDBRANCH   1   2
BRANCH   1   8
ATOM      8  C   UNL     1     131.645 138.183  87.132  0.00  0.00    +0.000 C 
ATOM      9  C   UNL     1     131.353 137.830  86.591  0.00  0.00    +0.000 C 
ATOM     10  C   UNL     1     132.061 137.903  86.640  0.00  0.00    +0.000 C 
BRANCH   8  11
ATOM     11  N   UNL     1     132.212 138.432  87.477  0.00  0.00    +0.000 NA
ATOM     12  C   UNL     1     132.814 138.052  87.490  0.00  0.00    +0.000 C 
ENDBRANCH   8  11
ENDBRANCH   1   8
TORSDOF 3
ENDMDL
MODEL 16
REMARK VINA RESULT:      -6.6      6.965      7.737
REMARK  Name = 
REMARK  3 active torsions:
REMARK  status: ('A' for Active; 'I' for Inactive)
REMARK    1  A    between atoms: C_1  and  N_2
REMARK    2  A    between atoms: C_1  and  C_3
REMARK    3  A    between atoms: C_3  and  C_4
REMARK                            x       y       z     vdW  Elec       q    Type
REMARK                         _______ _______ _______ _____ _____    ______ ____
ROOT
ATOM      1  C   UNL     1     134.354 136.665  91.738  0.00  0.00    +0.000 C 
ENDROOT
BRANCH   1   2
ATOM      2  C   UNL     1     134.270 136.911  91.078  0.00  0.00    +0.000 A 
ATOM      3  C   UNL     1     133.650 137.194  90.887  0.00  0.00    +0.000 A 
ATOM      4  C   UNL     1     134.805 136.875  90.609  0.00  0.00    +0.000 A 
ATOM      5  C   UNL     1     133.563 137.441  90.230  0.00  0.00    +0.000 A 
ATOM      6  C   UNL     1     134.717 137.122  89.952  0.00  0.00    +0.000 A 
ATOM      7  C   UNL     1     134.098 137.405  89.761  0.00  0.00    +0.000 A 
ENDBRANCH   1   2
BRANCH   1   8
ATOM      8  C   UNL     1     134.465 137.119  92.270  0.00  0.00    +0.000 C 
ATOM      9  C   UNL     1     133.824 136.959  92.527  0.00  0.00    +0.000 C 
ATOM     10  C   UNL     1     134.242 137.432  92.857  0.00  0.00    +0.000 C 
BRANCH   8  11
ATOM     11  N   UNL     1     135.076 137.477  92.303  0.00  0.00    +0.000 NA
ATOM     12  C   UNL     1     135.363 137.629  92.936  0.00  0.00    +0.000 C 
ENDBRANCH   8  11
ENDBRANCH   1   8
TORSDOF 3
ENDMDL
MODEL 17
REMARK VINA RESULT:      -6.5     80.236     80.943
REMARK  Name = 
REMARK  3 active torsions:
REMARK  status: ('A' for Active; 'I' for Inactive)
REMARK    1  A    between atoms: C_1  and  N_2
REMARK    2  A    between atoms: C_1  and  C_3
REMARK    3  A    between atoms: C_3  and  C_4
REMARK                            x       y       z     vdW  Elec       q    Type
REMARK                         _______ _______ _______ _____ _____    ______ ____
ROOT
ATOM      1  C   UNL     1     139.099 112.351 165.299  0.00  0.00    +0.000 C 
ENDROOT
BRANCH   1   2
ATOM      2  C   UNL     1     138.550 112.746 165.514  0.00  0.00    +0.000 A 
ATOM      3  C   UNL     1     138.401 112.789 166.206  0.00  0.00    +0.000 A 
ATOM      4  C   UNL     1     138.151 113.096 165.040  0.00  0.00    +0.000 A 
ATOM      5  C   UNL     1     137.854 113.182 166.423  0.00  0.00    +0.000 A 
ATOM      6  C   UNL     1     137.604 113.488 165.260  0.00  0.00    +0.000 A 
ATOM      7  C   UNL     1     137.455 113.532 165.949  0.00  0.00    +0.000 A 
ENDBRANCH   1   2
BRANCH   1   8
ATOM      8  C   UNL     1     139.753 112.623 165.315  0.00  0.00    +0.000 C 
ATOM      9  C   UNL     1     139.941 112.117 165.775  0.00  0.00    +0.000 C 
ATOM     10  C   UNL     1     140.412 112.606 165.558  0.00  0.00    +0.000 C 
BRANCH   8  11
ATOM     11  N   UNL     1     139.905 113.194 164.924  0.00  0.00    +0.000 NA
ATOM     12  C   UNL     1     140.558 113.274 164.654  0.00  0.00    +0.000 C 
ENDBRANCH   8  11
ENDBRANCH   1   8
TORSDOF 3
ENDMDL
MODEL 18
REMARK VINA RESULT:      -6.4     15.326     16.250
REMARK  Name = 
REMARK  3 active torsions:
REMARK  status: ('A' for Active; 'I' for Inactive)
REMARK    1  A    between atoms: C_1  and  N_2
REMARK    2  A    between atoms: C_1  and  C_3
REMARK    3  A    between atoms: C_3  and  C_4
REMARK                            x       y       z     vdW  Elec       q    Type
REMARK                         _______ _______ _______ _____ _____    ______ ____
ROOT
ATOM      1  C   UNL     1     134.533 156.118  82.478  0.00  0.00    +0.000 C 
ENDROOT
BRANCH   1   2
ATOM      2  C   UNL     1     134.129 155.756  82.935  0.00  0.00    +0.000 A 
ATOM      3  C   UNL     1     134.433 155.300  83.385  0.00  0.00    +0.000 A 
ATOM      4  C   UNL     1     133.423 155.847  82.943  0.00  0.00    +0.000 A 
ATOM      5  C   UNL     1     134.032 154.938  83.842  0.00  0.00    +0.000 A 
ATOM      6  C   UNL     1     133.024 155.484  83.400  0.00  0.00    +0.000 A 
ATOM      7  C   UNL     1     133.326 155.030  83.850  0.00  0.00    +0.000 A 
ENDBRANCH   1   2
BRANCH   1   8
ATOM      8  C   UNL     1     134.879 156.694  82.698  0.00  0.00    +0.000 C 
ATOM      9  C   UNL     1     135.489 156.337  82.641  0.00  0.00    +0.000 C 
ATOM     10  C   UNL     1     135.482 157.016  82.861  0.00  0.00    +0.000 C 
BRANCH   8  11
ATOM     11  N   UNL     1     134.517 157.283  82.854  0.00  0.00    +0.000 NA
ATOM     12  C   UNL     1     134.796 157.920  82.705  0.00  0.00    +0.000 C 
ENDBRANCH   8  11
ENDBRANCH   1   8
TORSDOF 3
ENDMDL
MODEL 19
REMARK VINA RESULT:      -6.3     79.203     80.272
REMARK  Name = 
REMARK  3 active torsions:
REMARK  status: ('A' for Active; 'I' for Inactive)
REMARK    1  A    between atoms: C_1  and  N_2
REMARK    2  A    between atoms: C_1  and  C_3
REMARK    3  A    between atoms: C_3  and  C_4
REMARK                            x       y       z     vdW  Elec       q    Type
REMARK                         _______ _______ _______ _____ _____    ______ ____
ROOT
ATOM      1  C   UNL     1     139.173 113.017 164.342  0.00  0.00    +0.000 C 
ENDROOT
BRANCH   1   2
ATOM      2  C   UNL     1     139.656 112.777 164.804  0.00  0.00    +0.000 A 
ATOM      3  C   UNL     1     140.345 112.867 164.667  0.00  0.00    +0.000 A 
ATOM      4  C   UNL     1     139.451 112.449 165.402  0.00  0.00    +0.000 A 
ATOM      5  C   UNL     1     140.829 112.629 165.125  0.00  0.00    +0.000 A 
ATOM      6  C   UNL     1     139.936 112.212 165.860  0.00  0.00    +0.000 A 
ATOM      7  C   UNL     1     140.624 112.301 165.723  0.00  0.00    +0.000 A 
ENDBRANCH   1   2
BRANCH   1   8
ATOM      8  C   UNL     1     138.873 113.649 164.446  0.00  0.00    +0.000 C 
ATOM      9  C   UNL     1     138.265 113.323 164.609  0.00  0.00    +0.000 C 
ATOM     10  C   UNL     1     138.312 114.035 164.618  0.00  0.00    +0.000 C 
BRANCH   8  11
ATOM     11  N   UNL     1     139.257 114.239 164.355  0.00  0.00    +0.000 NA
ATOM     12  C   UNL     1     138.951 114.821 164.085  0.00  0.00    +0.000 C 
ENDBRANCH   8  11
ENDBRANCH   1   8
TORSDOF 3
ENDMDL
MODEL 20
REMARK VINA RESULT:      -6.1     50.849     51.589
REMARK  Name = 
REMARK  3 active torsions:
REMARK  status: ('A' for Active; 'I' for Inactive)
REMARK    1  A    between atoms: C_1  and  N_2
REMARK    2  A    between atoms: C_1  and  C_3
REMARK    3  A    between atoms: C_3  and  C_4
REMARK                            x       y       z     vdW  Elec       q    Type
REMARK                         _______ _______ _______ _____ _____    ______ ____
ROOT
ATOM      1  C   UNL     1     108.051 129.795 135.764  0.00  0.00    +0.000 C 
ENDROOT
BRANCH   1   2
ATOM      2  C   UNL     1     107.771 129.189 136.004  0.00  0.00    +0.000 A 
ATOM      3  C   UNL     1     107.133 129.198 136.311  0.00  0.00    +0.000 A 
ATOM      4  C   UNL     1     108.127 128.576 135.937  0.00  0.00    +0.000 A 
ATOM      5  C   UNL     1     106.850 128.595 136.552  0.00  0.00    +0.000 A 
ATOM      6  C   UNL     1     107.843 127.974 136.178  0.00  0.00    +0.000 A 
ATOM      7  C   UNL     1     107.206 127.982 136.485  0.00  0.00    +0.000 A 
ENDBRANCH   1   2
BRANCH   1   8
ATOM      8  C   UNL     1     107.908 130.010 135.105  0.00  0.00    +0.000 C 
ATOM      9  C   UNL     1     107.525 130.543 135.372  0.00  0.00    +0.000 C 
ATOM     10  C   UNL     1     107.594 130.461 134.667  0.00  0.00    +0.000 C 
BRANCH   8  11
ATOM     11  N   UNL     1     108.172 129.650 134.554  0.00  0.00    +0.000 NA
ATOM     12  C   UNL     1     108.348 129.996 133.957  0.00  0.00    +0.000 C 
ENDBRANCH   8  11
ENDBRANCH   1   8
TORSDOF 3
ENDMDL
