REMARK  Name = 
REMARK  1 active torsions:
REMARK  status: ('A' for Active; 'I' for Inactive)
REMARK    1  A    between atoms: S_2  and  C_4
REMARK                            x       y       z     vdW  Elec       q    Type
REMARK                         _______ _______ _______ _____ _____    ______ ____
ROOT
ATOM      1  S   UNL     1       3.879  -7.192   0.000  0.00  0.00    +0.000 S 
ATOM      2  C   UNL     1       4.492  -6.838   0.000  0.00  0.00    +0.000 A 
ATOM      3  C   UNL     1       5.717  -6.838   0.000  0.00  0.00    +0.000 A 
ATOM      4  N   UNL     1       3.271  -6.833   0.000  0.00  0.00    +0.000 NA
ATOM      5  C   UNL     1       5.104  -7.192   0.000  0.00  0.00    +0.000 A 
ATOM      6  C   UNL     1       4.496  -6.129   0.000  0.00  0.00    +0.000 A 
ATOM      7  C   UNL     1       5.717  -6.125   0.000  0.00  0.00    +0.000 A 
ATOM      8  N   UNL     1       3.888  -5.775   0.000  0.00  0.00    +0.000 NA
ATOM      9  C   UNL     1       5.104  -5.771   0.000  0.00  0.00    +0.000 A 
ATOM     10  C   UNL     1       3.275  -6.125   0.000  0.00  0.00    +0.000 C 
ATOM     11  O   UNL     1       4.229  -7.804   0.000  0.00  0.00    +0.000 OA
ATOM     12  O   UNL     1       3.517  -7.804   0.000  0.00  0.00    +0.000 OA
ATOM     13 CL   UNL     1       6.329  -5.767   0.000  0.00  0.00    +0.000 Cl
ENDROOT
BRANCH   3  14
ATOM     14  S   UNL     1       6.333  -7.192   0.000  0.00  0.00    +0.000 S 
ATOM     15  O   UNL     1       6.679  -7.804   0.000  0.00  0.00    +0.000 OA
ATOM     16  O   UNL     1       5.975  -7.804   0.000  0.00  0.00    +0.000 OA
ATOM     17  N   UNL     1       6.946  -6.833   0.000  0.00  0.00    +0.000 NA
ENDBRANCH   3  14
TORSDOF 1
