REMARK  Name = 
REMARK  4 active torsions:
REMARK  status: ('A' for Active; 'I' for Inactive)
REMARK    1  A    between atoms: C_1  and  C_2
REMARK    2  A    between atoms: C_1  and  C_3
REMARK    3  A    between atoms: C_2  and  C_4
REMARK    4  A    between atoms: C_3  and  C_5
REMARK                            x       y       z     vdW  Elec       q    Type
REMARK                         _______ _______ _______ _____ _____    ______ ____
ROOT
ATOM      1  C   UNL     1      -0.100   0.483   0.000  0.00  0.00    +0.000 C 
ATOM      2  O   UNL     1       0.762   1.283   0.000  0.00  0.00    +0.000 OA
ATOM      3  C   UNL     1      -0.983   1.300   0.000  0.00  0.00    +0.000 C 
ENDROOT
BRANCH   1   4
ATOM      4  C   UNL     1      -1.121  -0.442   0.000  0.00  0.00    +0.000 C 
BRANCH   4   5
ATOM      5  C   UNL     1      -2.671  -0.442   0.000  0.00  0.00    +0.000 C 
ATOM      6  O   UNL     1      -3.446  -1.754   0.000  0.00  0.00    +0.000 OA
ATOM      7  O   UNL     1      -3.446   0.883   0.000  0.00  0.00    +0.000 OA
ENDBRANCH   4   5
ENDBRANCH   1   4
BRANCH   1   8
ATOM      8  C   UNL     1       0.875  -0.404   0.000  0.00  0.00    +0.000 C 
BRANCH   8   9
ATOM      9  C   UNL     1       2.217   0.346   0.000  0.00  0.00    +0.000 C 
ATOM     10  O   UNL     1       2.237   1.883   0.000  0.00  0.00    +0.000 OA
ATOM     11  O   UNL     1       3.554  -0.442   0.000  0.00  0.00    +0.000 OA
ENDBRANCH   8   9
ENDBRANCH   1   8
TORSDOF 4
