REMARK  Name = 
REMARK  11 active torsions:
REMARK  status: ('A' for Active; 'I' for Inactive)
REMARK    1  A    between atoms: C_1  and  C_13
REMARK    2  A    between atoms: C_2  and  C_18
REMARK    3  A    between atoms: N_3  and  C_20
REMARK    4  A    between atoms: C_5  and  C_30
REMARK    5  A    between atoms: C_6  and  C_17
REMARK    6  A    between atoms: C_8  and  C_22
REMARK    7  A    between atoms: C_13  and  O_21
REMARK    8  A    between atoms: C_19  and  C_23
REMARK    9  A    between atoms: C_20  and  C_28
REMARK   10  A    between atoms: O_21  and  C_22
REMARK   11  A    between atoms: C_30  and  C_38
REMARK                            x       y       z     vdW  Elec       q    Type
REMARK                         _______ _______ _______ _____ _____    ______ ____
ROOT
ATOM      1  C   UNL     1       3.192  -2.867   0.000  0.00  0.00    +0.000 A 
ATOM      2  C   UNL     1       3.404  -2.192   0.000  0.00  0.00    +0.000 A 
ATOM      3  N   UNL     1       3.767  -3.279   0.000  0.00  0.00    +0.000 N 
ATOM      4  N   UNL     1       4.117  -2.192   0.000  0.00  0.00    +0.000 NA
ATOM      5  C   UNL     1       4.354  -2.867   0.000  0.00  0.00    +0.000 A 
ENDROOT
BRANCH   2   6
ATOM      6  C   UNL     1       2.788  -1.842   0.000  0.00  0.00    +0.000 C 
ATOM      7  O   UNL     1       2.171  -2.196   0.000  0.00  0.00    +0.000 OA
ATOM      8  C   UNL     1       2.429  -1.225   0.000  0.00  0.00    +0.000 C 
ATOM      9  C   UNL     1       3.138  -1.225   0.000  0.00  0.00    +0.000 C 
ENDBRANCH   2   6
BRANCH   1  10
ATOM     10  C   UNL     1       2.592  -3.217   0.000  0.00  0.00    +0.000 C 
ATOM     11  O   UNL     1       2.592  -3.917   0.000  0.00  0.00    +0.000 OA
BRANCH  10  12
ATOM     12  O   UNL     1       2.004  -2.867   0.000  0.00  0.00    +0.000 OA
BRANCH  12  13
ATOM     13  C   UNL     1       1.404  -3.217   0.000  0.00  0.00    +0.000 C 
BRANCH  13  14
ATOM     14  C   UNL     1       0.804  -2.867   0.000  0.00  0.00    +0.000 A 
ATOM     15  C   UNL     1      -0.321  -2.913   0.000  0.00  0.00    +0.000 A 
ATOM     16  O   UNL     1       0.242  -3.317   0.000  0.00  0.00    +0.000 OA
ATOM     17  O   UNL     1      -0.121  -2.267   0.000  0.00  0.00    +0.000 OA
ATOM     18  C   UNL     1       0.592  -2.267   0.000  0.00  0.00    +0.000 A 
ATOM     19  O   UNL     1      -0.996  -3.133   0.000  0.00  0.00    +0.000 OA
ATOM     20  C   UNL     1       1.042  -1.729   0.000  0.00  0.00    +0.000 C 
ENDBRANCH  13  14
ENDBRANCH  12  13
ENDBRANCH  10  12
ENDBRANCH   1  10
BRANCH   3  21
ATOM     21  C   UNL     1       3.779  -3.979   0.000  0.00  0.00    +0.000 C 
BRANCH  21  25
ATOM     22  C   UNL     1       5.667  -5.067   0.000  0.00  0.00    +0.000 A 
ATOM     23  C   UNL     1       5.029  -5.442   0.000  0.00  0.00    +0.000 A 
ATOM     24  C   UNL     1       5.667  -4.342   0.000  0.00  0.00    +0.000 A 
ATOM     25  C   UNL     1       4.404  -4.342   0.000  0.00  0.00    +0.000 A 
ATOM     26  C   UNL     1       5.029  -3.967   0.000  0.00  0.00    +0.000 A 
ATOM     27  C   UNL     1       4.404  -5.067   0.000  0.00  0.00    +0.000 A 
BRANCH  22  29
ATOM     28  C   UNL     1       6.942  -5.054   0.000  0.00  0.00    +0.000 A 
ATOM     29  C   UNL     1       6.304  -5.417   0.000  0.00  0.00    +0.000 A 
ATOM     30  C   UNL     1       7.554  -5.417   0.000  0.00  0.00    +0.000 A 
ATOM     31  C   UNL     1       6.304  -6.129   0.000  0.00  0.00    +0.000 A 
ATOM     32  C   UNL     1       7.554  -6.129   0.000  0.00  0.00    +0.000 A 
ATOM     33  C   UNL     1       6.942  -6.492   0.000  0.00  0.00    +0.000 A 
BRANCH  28  34
ATOM     34  C   UNL     1       6.942  -4.404   0.000  0.00  0.00    +0.000 A 
ATOM     35  N   UNL     1       6.592  -3.292   0.000  0.00  0.00    +0.000 NA
ATOM     36  N   UNL     1       6.354  -4.017   0.000  0.00  0.00    +0.000 NA
ATOM     37  N   UNL     1       7.342  -3.292   0.000  0.00  0.00    +0.000 NA
ATOM     38  N   UNL     1       7.542  -4.042   0.000  0.00  0.00    +0.000 NA
ENDBRANCH  28  34
ENDBRANCH  22  29
ENDBRANCH  21  25
ENDBRANCH   3  21
BRANCH   5  39
ATOM     39  C   UNL     1       4.967  -3.229   0.000  0.00  0.00    +0.000 C 
BRANCH  39  40
ATOM     40  C   UNL     1       5.542  -2.867   0.000  0.00  0.00    +0.000 C 
ATOM     41  C   UNL     1       5.542  -2.192   0.000  0.00  0.00    +0.000 C 
ENDBRANCH  39  40
ENDBRANCH   5  39
TORSDOF 11
