REMARK  Name = 
REMARK  12 active torsions:
REMARK  status: ('A' for Active; 'I' for Inactive)
REMARK    1  A    between atoms: N_8  and  CA_12
REMARK    2  A    between atoms: N_8  and  CA_17
REMARK    3  A    between atoms: CA_10  and  C_15
REMARK    4  A    between atoms: C_11  and  CA_12
REMARK    5  A    between atoms: CA_12  and  CB_18
REMARK    6  A    between atoms: CA_17  and  C_19
REMARK    7  A    between atoms: CA_17  and  C_20
REMARK    8  A    between atoms: CB_18  and  CG_21
REMARK    9  A    between atoms: C_20  and  C_22
REMARK   10  A    between atoms: CG_21  and  CD_24
REMARK   11  A    between atoms: C_22  and  C_23
REMARK   12  A    between atoms: CD_24  and  CE_30
REMARK                            x       y       z     vdW  Elec       q    Type
REMARK                         _______ _______ _______ _____ _____    ______ ____
ROOT
ATOM      1  O   HOH     1       4.500  -1.902   0.000  0.00  0.00    +0.000 OA
ENDROOT
TORSDOF 0
REMARK  Name = 
REMARK  12 active torsions:
REMARK  status: ('A' for Active; 'I' for Inactive)
REMARK    1  A    between atoms: N_8  and  CA_12
REMARK    2  A    between atoms: N_8  and  CA_17
REMARK    3  A    between atoms: CA_10  and  C_15
REMARK    4  A    between atoms: C_11  and  CA_12
REMARK    5  A    between atoms: CA_12  and  CB_18
REMARK    6  A    between atoms: CA_17  and  C_19
REMARK    7  A    between atoms: CA_17  and  C_20
REMARK    8  A    between atoms: CB_18  and  CG_21
REMARK    9  A    between atoms: C_20  and  C_22
REMARK   10  A    between atoms: CG_21  and  CD_24
REMARK   11  A    between atoms: C_22  and  C_23
REMARK   12  A    between atoms: CD_24  and  CE_30
REMARK                            x       y       z     vdW  Elec       q    Type
REMARK                         _______ _______ _______ _____ _____    ______ ____
ROOT
ATOM      1  CA  UNL     1      -0.362  -0.340   0.000  0.00  0.00    +0.000 C 
ENDROOT
BRANCH   1   5
ATOM      2  O   UNL     1      -0.362  -1.769   0.000  0.00  0.00    +0.000 OA
ATOM      3  N   UNL     1      -1.599  -1.055   0.000  0.00  0.00    +0.000 N 
ATOM      4  CA  UNL     1      -2.084  -1.722   0.000  0.00  0.00    +0.000 C 
ATOM      5  C   UNL     1      -0.774  -1.055   0.000  0.00  0.00    +0.000 C 
ATOM      6  CD  UNL     1      -2.084  -0.387   0.000  0.00  0.00    +0.000 C 
ATOM      7  CB  UNL     1      -2.869  -1.467   0.000  0.00  0.00    +0.000 C 
ATOM      8  CG  UNL     1      -2.869  -0.642   0.000  0.00  0.00    +0.000 C 
BRANCH   4  11
ATOM      9  O   UNL     1      -2.381  -3.120   0.000  0.00  0.00    +0.000 OA
ATOM     10  OXT UNL     1      -1.022  -2.678   0.000  0.00  0.00    +0.000 OA
ATOM     11  C   UNL     1      -1.829  -2.507   0.000  0.00  0.00    +0.000 C 
ENDBRANCH   4  11
ENDBRANCH   1   5
BRANCH   1  12
ATOM     12  N   UNL     1       0.463  -0.340   0.000  0.00  0.00    +0.000 NA
BRANCH  12  13
ATOM     13  CA  UNL     1       0.876   0.374   0.000  0.00  0.00    +0.000 C 
BRANCH  13  16
ATOM     14  O   UNL     1       0.876   1.803   0.000  0.00  0.00    +0.000 OA
ATOM     15  OXT UNL     1      -0.362   1.089   0.000  0.00  0.00    +0.000 OA
ATOM     16  C   UNL     1       0.463   1.089   0.000  0.00  0.00    +0.000 C 
ENDBRANCH  13  16
BRANCH  13  17
ATOM     17  C   UNL     1       1.701   0.374   0.000  0.00  0.00    +0.000 C 
BRANCH  17  18
ATOM     18  C   UNL     1       2.113   1.089   0.000  0.00  0.00    +0.000 C 
BRANCH  18  19
ATOM     19  C   UNL     1       2.938   1.089   0.000  0.00  0.00    +0.000 A 
ATOM     20  C   UNL     1       3.351   1.803   0.000  0.00  0.00    +0.000 A 
ATOM     21  C   UNL     1       3.351   0.374   0.000  0.00  0.00    +0.000 A 
ATOM     22  C   UNL     1       4.176   1.803   0.000  0.00  0.00    +0.000 A 
ATOM     23  C   UNL     1       4.176   0.374   0.000  0.00  0.00    +0.000 A 
ATOM     24  C   UNL     1       4.588   1.089   0.000  0.00  0.00    +0.000 A 
ENDBRANCH  18  19
ENDBRANCH  17  18
ENDBRANCH  13  17
ENDBRANCH  12  13
ENDBRANCH   1  12
BRANCH   1  25
ATOM     25  CB  UNL     1      -0.774   0.374   0.000  0.00  0.00    +0.000 C 
BRANCH  25  26
ATOM     26  CG  UNL     1      -1.599   0.374   0.000  0.00  0.00    +0.000 C 
BRANCH  26  27
ATOM     27  CD  UNL     1      -2.012   1.089   0.000  0.00  0.00    +0.000 C 
BRANCH  27  29
ATOM     28  NZ  UNL     1      -3.249   1.803   0.000  0.00  0.00    +0.000 NA
ATOM     29  CE  UNL     1      -2.837   1.089   0.000  0.00  0.00    +0.000 C 
ENDBRANCH  27  29
ENDBRANCH  26  27
ENDBRANCH  25  26
ENDBRANCH   1  25
TORSDOF 12
REMARK  Name = 
REMARK  12 active torsions:
REMARK  status: ('A' for Active; 'I' for Inactive)
REMARK    1  A    between atoms: N_8  and  CA_12
REMARK    2  A    between atoms: N_8  and  CA_17
REMARK    3  A    between atoms: CA_10  and  C_15
REMARK    4  A    between atoms: C_11  and  CA_12
REMARK    5  A    between atoms: CA_12  and  CB_18
REMARK    6  A    between atoms: CA_17  and  C_19
REMARK    7  A    between atoms: CA_17  and  C_20
REMARK    8  A    between atoms: CB_18  and  CG_21
REMARK    9  A    between atoms: C_20  and  C_22
REMARK   10  A    between atoms: CG_21  and  CD_24
REMARK   11  A    between atoms: C_22  and  C_23
REMARK   12  A    between atoms: CD_24  and  CE_30
REMARK                            x       y       z     vdW  Elec       q    Type
REMARK                         _______ _______ _______ _____ _____    ______ ____
ROOT
ATOM      1  O   HOH     1       6.827   0.000   0.000  0.00  0.00    +0.000 OA
ENDROOT
TORSDOF 0
