REMARK  Name = 
REMARK  4 active torsions:
REMARK  status: ('A' for Active; 'I' for Inactive)
REMARK    1  A    between atoms: C_5  and  C_13
REMARK    2  A    between atoms: C_13  and  C_21
REMARK    3  A    between atoms: C_19  and  O_23
REMARK    4  A    between atoms: C_21  and  O_23
REMARK                            x       y       z     vdW  Elec       q    Type
REMARK                         _______ _______ _______ _____ _____    ______ ____
ROOT
ATOM      1  C   UNL     1       3.217  -1.950   0.000  0.00  0.00    +0.000 C 
ATOM      2  C   UNL     1       1.979  -2.650   0.000  0.00  0.00    +0.000 C 
ATOM      3  C   UNL     1       1.363  -3.000   0.000  0.00  0.00    +0.000 C 
ATOM      4  C   UNL     1       3.212  -2.654   0.000  0.00  0.00    +0.000 C 
ATOM      5  C   UNL     1       3.900  -1.729   0.000  0.00  0.00    +0.000 C 
ATOM      6  C   UNL     1       2.592  -3.004   0.000  0.00  0.00    +0.000 C 
ATOM      7  C   UNL     1       1.363  -3.717   0.000  0.00  0.00    +0.000 C 
ATOM      8  C   UNL     1       1.979  -1.938   0.000  0.00  0.00    +0.000 C 
ATOM      9  C   UNL     1       2.604  -1.579   0.000  0.00  0.00    +0.000 C 
ATOM     10  C   UNL     1       4.312  -2.312   0.000  0.00  0.00    +0.000 C 
ATOM     11  C   UNL     1       0.750  -2.650   0.000  0.00  0.00    +0.000 C 
ATOM     12  C   UNL     1       3.888  -2.888   0.000  0.00  0.00    +0.000 C 
ATOM     13  C   UNL     1       0.750  -4.067   0.000  0.00  0.00    +0.000 C 
ATOM     14  C   UNL     1       2.592  -3.717   0.000  0.00  0.00    +0.000 C 
ATOM     15  C   UNL     1       0.138  -3.000   0.000  0.00  0.00    +0.000 C 
ATOM     16  C   UNL     1       0.138  -3.717   0.000  0.00  0.00    +0.000 C 
ATOM     17  C   UNL     1       1.975  -4.071   0.000  0.00  0.00    +0.000 C 
ATOM     18  F   UNL     1       1.975  -3.354   0.000  0.00  0.00    +0.000 F 
ATOM     19  O   UNL     1      -0.483  -4.067   0.000  0.00  0.00    +0.000 OA
ATOM     20  O   UNL     1       4.517  -1.375   0.000  0.00  0.00    +0.000 OA
ATOM     21  C   UNL     1       3.217  -1.238   0.000  0.00  0.00    +0.000 C 
ATOM     22  O   UNL     1       1.367  -1.575   0.000  0.00  0.00    +0.000 OA
ATOM     23  C   UNL     1       1.354  -2.292   0.000  0.00  0.00    +0.000 C 
ATOM     24  C   UNL     1       5.025  -2.317   0.000  0.00  0.00    +0.000 C 
ENDROOT
BRANCH   5  25
ATOM     25  C   UNL     1       3.892  -1.017   0.000  0.00  0.00    +0.000 C 
ATOM     26  O   UNL     1       3.275  -0.667   0.000  0.00  0.00    +0.000 OA
BRANCH  25  27
ATOM     27  C   UNL     1       4.504  -0.654   0.000  0.00  0.00    +0.000 C 
BRANCH  27  28
ATOM     28  O   UNL     1       5.129  -1.004   0.000  0.00  0.00    +0.000 OA
BRANCH  28  29
ATOM     29  C   UNL     1       5.742  -0.650   0.000  0.00  0.00    +0.000 C 
ATOM     30  O   UNL     1       5.737   0.062   0.000  0.00  0.00    +0.000 OA
ATOM     31  C   UNL     1       6.354  -1.000   0.000  0.00  0.00    +0.000 C 
ENDBRANCH  28  29
ENDBRANCH  27  28
ENDBRANCH  25  27
ENDBRANCH   5  25
TORSDOF 4
