REMARK  Name = 
REMARK  10 active torsions:
REMARK  status: ('A' for Active; 'I' for Inactive)
REMARK    1  A    between atoms: C_6  and  C_20
REMARK    2  A    between atoms: C_8  and  C_20
REMARK    3  A    between atoms: C_9  and  C_19
REMARK    4  A    between atoms: C_11  and  C_18
REMARK    5  A    between atoms: C_18  and  C_26
REMARK    6  A    between atoms: C_25  and  C_51
REMARK    7  A    between atoms: N_42  and  C_53
REMARK    8  A    between atoms: C_51  and  C_54
REMARK    9  A    between atoms: C_53  and  C_55
REMARK   10  A    between atoms: C_54  and  C_55
REMARK                            x       y       z     vdW  Elec       q    Type
REMARK                         _______ _______ _______ _____ _____    ______ ____
ROOT
ATOM      1  N   UNL     1       5.517 -23.488   0.000  0.00  0.00    +0.000 N 
ATOM      2  C   UNL     1       6.129 -23.137   0.000  0.00  0.00    +0.000 C 
ATOM      3  C   UNL     1       4.188 -23.163   0.000  0.00  0.00    +0.000 C 
ATOM      4  N   UNL     1       3.571 -23.517   0.000  0.00  0.00    +0.000 NA
ATOM      5  N   UNL     1       5.521 -22.071   0.000  0.00  0.00    +0.000 NA
ATOM      6  C   UNL     1       6.133 -22.429   0.000  0.00  0.00    +0.000 C 
ATOM      7  C   UNL     1       5.525 -21.363   0.000  0.00  0.00    +0.000 C 
ATOM      8  C   UNL     1       3.571 -24.225   0.000  0.00  0.00    +0.000 C 
ATOM      9  C   UNL     1       4.804 -23.517   0.000  0.00  0.00    +0.000 C 
ATOM     10  C   UNL     1       4.917 -21.008   0.000  0.00  0.00    +0.000 C 
ATOM     11  N   UNL     1       4.300 -21.358   0.000  0.00  0.00    +0.000 NA
ATOM     12  N   UNL     1       0.617 -21.337   0.000  0.00  0.00    +0.000 NA
ATOM     13  C   UNL     1       1.846 -21.342   0.000  0.00  0.00    +0.000 C 
ATOM     14  N   UNL     1       2.462 -20.992   0.000  0.00  0.00    +0.000 NA
ATOM     15  C   UNL     1       0.617 -22.042   0.000  0.00  0.00    +0.000 C 
ATOM     16  C   UNL     1       3.688 -21.000   0.000  0.00  0.00    +0.000 C 
ATOM     17  C   UNL     1       1.233 -20.983   0.000  0.00  0.00    +0.000 C 
ATOM     18  S   UNL     1       2.346 -24.225   0.000  0.00  0.00    +0.000 S 
ATOM     19  S   UNL     1       1.833 -23.467   0.000  0.00  0.00    +0.000 S 
ATOM     20  O   UNL     1       6.742 -23.496   0.000  0.00  0.00    +0.000 OA
ATOM     21  O   UNL     1       4.183 -22.454   0.000  0.00  0.00    +0.000 OA
ATOM     22  O   UNL     1       6.142 -21.012   0.000  0.00  0.00    +0.000 OA
ATOM     23  O   UNL     1       1.842 -22.050   0.000  0.00  0.00    +0.000 OA
ATOM     24  C   UNL     1       2.958 -24.579   0.000  0.00  0.00    +0.000 C 
ATOM     25  C   UNL     1       1.225 -22.400   0.000  0.00  0.00    +0.000 C 
ATOM     26  C   UNL     1       3.071 -21.350   0.000  0.00  0.00    +0.000 C 
ATOM     27  O   UNL     1       0.000 -22.396   0.000  0.00  0.00    +0.000 OA
ATOM     28  O   UNL     1       3.692 -20.292   0.000  0.00  0.00    +0.000 OA
ATOM     29  C   UNL     1       5.767 -24.146   0.000  0.00  0.00    +0.000 C 
ATOM     30  C   UNL     1       1.221 -23.108   0.000  0.00  0.00    +0.000 C 
ATOM     31  C   UNL     1       4.621 -24.204   0.000  0.00  0.00    +0.000 C 
ATOM     32  C   UNL     1       5.213 -24.592   0.000  0.00  0.00    +0.000 C 
ENDROOT
BRANCH   8  33
ATOM     33  C   UNL     1       3.917 -24.837   0.000  0.00  0.00    +0.000 C 
ATOM     34  O   UNL     1       4.625 -24.842   0.000  0.00  0.00    +0.000 OA
ATOM     35  N   UNL     1       3.558 -25.446   0.000  0.00  0.00    +0.000 NA
ENDBRANCH   8  33
BRANCH  10  36
ATOM     36  C   UNL     1       4.921 -20.300   0.000  0.00  0.00    +0.000 C 
BRANCH  36  37
ATOM     37  C   UNL     1       5.533 -19.946   0.000  0.00  0.00    +0.000 C 
ATOM     38  O   UNL     1       5.537 -19.238   0.000  0.00  0.00    +0.000 OA
ATOM     39  O   UNL     1       6.146 -20.304   0.000  0.00  0.00    +0.000 OA
ENDBRANCH  36  37
ENDBRANCH  10  36
BRANCH   6  40
ATOM     40  C   UNL     1       6.750 -22.079   0.000  0.00  0.00    +0.000 C 
BRANCH  40  41
ATOM     41  C   UNL     1       7.362 -22.438   0.000  0.00  0.00    +0.000 A 
ATOM     42  N   UNL     1       8.358 -23.000   0.000  0.00  0.00    +0.000 NA
ATOM     43  C   UNL     1       7.654 -23.079   0.000  0.00  0.00    +0.000 A 
ATOM     44  C   UNL     1       7.883 -21.954   0.000  0.00  0.00    +0.000 A 
ATOM     45  C   UNL     1       8.496 -22.312   0.000  0.00  0.00    +0.000 A 
ATOM     46  C   UNL     1       7.883 -21.254   0.000  0.00  0.00    +0.000 A 
ATOM     47  C   UNL     1       9.108 -21.958   0.000  0.00  0.00    +0.000 A 
ATOM     48  C   UNL     1       8.492 -20.896   0.000  0.00  0.00    +0.000 A 
ATOM     49  C   UNL     1       9.108 -21.250   0.000  0.00  0.00    +0.000 A 
ENDBRANCH  40  41
ENDBRANCH   6  40
BRANCH  17  50
ATOM     50  C   UNL     1       1.238 -20.275   0.000  0.00  0.00    +0.000 C 
BRANCH  50  51
ATOM     51  C   UNL     1       1.854 -19.925   0.000  0.00  0.00    +0.000 C 
BRANCH  51  52
ATOM     52  C   UNL     1       1.858 -19.217   0.000  0.00  0.00    +0.000 C 
BRANCH  52  53
ATOM     53  C   UNL     1       2.475 -18.867   0.000  0.00  0.00    +0.000 C 
BRANCH  53  56
ATOM     54  C   UNL     1       3.700 -18.875   0.000  0.00  0.00    +0.000 C 
ATOM     55  N   UNL     1       3.704 -18.167   0.000  0.00  0.00    +0.000 NA
ATOM     56  N   UNL     1       3.083 -19.225   0.000  0.00  0.00    +0.000 NA
ATOM     57  N   UNL     1       4.312 -19.233   0.000  0.00  0.00    +0.000 NA
ENDBRANCH  53  56
ENDBRANCH  52  53
ENDBRANCH  51  52
ENDBRANCH  50  51
ENDBRANCH  17  50
TORSDOF 10
