REMARK  Name = 
REMARK  6 active torsions:
REMARK  status: ('A' for Active; 'I' for Inactive)
REMARK    1  A    between atoms: C_7  and  O_8
REMARK    2  A    between atoms: O_8  and  C_12
REMARK    3  A    between atoms: N_9  and  C_10
REMARK    4  A    between atoms: N_9  and  C_13
REMARK    5  A    between atoms: C_11  and  C_12
REMARK    6  A    between atoms: C_11  and  C_13
REMARK                            x       y       z     vdW  Elec       q    Type
REMARK                         _______ _______ _______ _____ _____    ______ ____
ROOT
ATOM      1  C   UNL     1       2.779  -1.425   0.000  0.00  0.00    +0.000 A 
ATOM      2  C   UNL     1       3.404  -1.775   0.000  0.00  0.00    +0.000 C 
ATOM      3  C   UNL     1       2.779  -0.713   0.000  0.00  0.00    +0.000 A 
ATOM      4  C   UNL     1       3.404  -0.354   0.000  0.00  0.00    +0.000 C 
ATOM      5  C   UNL     1       4.029  -1.425   0.000  0.00  0.00    +0.000 C 
ATOM      6  C   UNL     1       4.029  -0.713   0.000  0.00  0.00    +0.000 C 
ATOM      7  C   UNL     1       2.154  -1.775   0.000  0.00  0.00    +0.000 A 
ATOM      8  O   UNL     1       4.654  -1.775   0.000  0.00  0.00    +0.000 OA
ATOM      9  O   UNL     1       4.654  -0.354   0.000  0.00  0.00    +0.000 OA
ATOM     10  C   UNL     1       2.154  -0.354   0.000  0.00  0.00    +0.000 A 
ATOM     11  C   UNL     1       1.529  -0.713   0.000  0.00  0.00    +0.000 A 
ATOM     12  C   UNL     1       1.529  -1.425   0.000  0.00  0.00    +0.000 A 
ENDROOT
BRANCH   7  13
ATOM     13  O   UNL     1       2.154  -2.487   0.000  0.00  0.00    +0.000 OA
BRANCH  13  14
ATOM     14  C   UNL     1       1.542  -2.842   0.000  0.00  0.00    +0.000 C 
BRANCH  14  15
ATOM     15  C   UNL     1       0.929  -2.500   0.000  0.00  0.00    +0.000 C 
ATOM     16  O   UNL     1       0.921  -1.804   0.000  0.00  0.00    +0.000 OA
BRANCH  15  17
ATOM     17  C   UNL     1       0.329  -2.850   0.000  0.00  0.00    +0.000 C 
BRANCH  17  18
ATOM     18  N   UNL     1      -0.279  -2.500   0.000  0.00  0.00    +0.000 NA
BRANCH  18  19
ATOM     19  C   UNL     1      -0.883  -2.854   0.000  0.00  0.00    +0.000 C 
ATOM     20  C   UNL     1      -1.500  -2.508   0.000  0.00  0.00    +0.000 C 
ATOM     21  C   UNL     1      -0.533  -3.467   0.000  0.00  0.00    +0.000 C 
ATOM     22  C   UNL     1      -1.246  -3.467   0.000  0.00  0.00    +0.000 C 
ENDBRANCH  18  19
ENDBRANCH  17  18
ENDBRANCH  15  17
ENDBRANCH  14  15
ENDBRANCH  13  14
ENDBRANCH   7  13
TORSDOF 6
