REMARK  Name = 
REMARK  3 active torsions:
REMARK  status: ('A' for Active; 'I' for Inactive)
REMARK    1  A    between atoms: C_1  and  C_3
REMARK    2  A    between atoms: C_3  and  C_10
REMARK    3  A    between atoms: N_5  and  C_10
REMARK                            x       y       z     vdW  Elec       q    Type
REMARK                         _______ _______ _______ _____ _____    ______ ____
ROOT
ATOM      1  C   UNL     1       4.529  -7.492   0.000  0.00  0.00    +0.000 A 
ATOM      2  C   UNL     1       3.917  -7.150   0.000  0.00  0.00    +0.000 A 
ATOM      3  C   UNL     1       3.304  -7.500   0.000  0.00  0.00    +0.000 A 
ATOM      4  O   UNL     1       2.679  -7.154   0.000  0.00  0.00    +0.000 OA
ATOM      5  C   UNL     1       4.537  -8.213   0.000  0.00  0.00    +0.000 A 
ATOM      6  C   UNL     1       3.917  -8.562   0.000  0.00  0.00    +0.000 A 
ATOM      7  C   UNL     1       3.304  -8.213   0.000  0.00  0.00    +0.000 A 
ENDROOT
BRANCH   1   8
ATOM      8  C   UNL     1       5.138  -7.142   0.000  0.00  0.00    +0.000 C 
ATOM      9  O   UNL     1       5.138  -6.438   0.000  0.00  0.00    +0.000 OA
BRANCH   8  10
ATOM     10  C   UNL     1       5.763  -7.492   0.000  0.00  0.00    +0.000 C 
BRANCH  10  11
ATOM     11  N   UNL     1       6.375  -7.129   0.000  0.00  0.00    +0.000 NA
ATOM     12  C   UNL     1       6.992  -7.479   0.000  0.00  0.00    +0.000 C 
ENDBRANCH  10  11
ENDBRANCH   8  10
ENDBRANCH   1   8
TORSDOF 3
