REMARK  Name = 
REMARK  19 active torsions:
REMARK  status: ('A' for Active; 'I' for Inactive)
REMARK    1  A    between atoms: C_1  and  C_3
REMARK    2  A    between atoms: C_1  and  C_10
REMARK    3  A    between atoms: C_2  and  C_4
REMARK    4  A    between atoms: C_4  and  C_5
REMARK    5  A    between atoms: C_4  and  C_21
REMARK    6  A    between atoms: C_5  and  C_11
REMARK    7  A    between atoms: N_6  and  C_10
REMARK    8  A    between atoms: C_7  and  C_8
REMARK    9  A    between atoms: C_7  and  C_13
REMARK   10  A    between atoms: C_7  and  C_22
REMARK   11  A    between atoms: C_8  and  C_12
REMARK   12  A    between atoms: C_9  and  O_25
REMARK   13  A    between atoms: C_11  and  C_12
REMARK   14  A    between atoms: C_13  and  C_16
REMARK   15  A    between atoms: C_14  and  O_27
REMARK   16  A    between atoms: O_25  and  C_32
REMARK   17  A    between atoms: C_30  and  C_32
REMARK   18  A    between atoms: C_30  and  C_33
REMARK   19  A    between atoms: O_31  and  C_33
REMARK                            x       y       z     vdW  Elec       q    Type
REMARK                         _______ _______ _______ _____ _____    ______ ____
ROOT
ATOM      1  C   UNL     1       3.954  -1.029   0.000  0.00  0.00    +0.000 C 
ENDROOT
BRANCH   1   2
ATOM      2  C   UNL     1       4.575  -0.667   0.000  0.00  0.00    +0.000 C 
ATOM      3  N   UNL     1       4.567   0.050   0.000  0.00  0.00    +0.000 NA
BRANCH   2   4
ATOM      4  C   UNL     1       5.192  -1.029   0.000  0.00  0.00    +0.000 C 
ATOM      5  O   UNL     1       5.192  -1.750   0.000  0.00  0.00    +0.000 OA
BRANCH   4   6
ATOM      6  C   UNL     1       5.817  -0.667   0.000  0.00  0.00    +0.000 C 
BRANCH   6   7
ATOM      7  C   UNL     1       6.438  -1.029   0.000  0.00  0.00    +0.000 C 
BRANCH   7   8
ATOM      8  C   UNL     1       7.054  -0.667   0.000  0.00  0.00    +0.000 C 
ATOM      9  N   UNL     1       7.679  -1.029   0.000  0.00  0.00    +0.000 NA
ATOM     10  O   UNL     1       7.054   0.050   0.000  0.00  0.00    +0.000 OA
BRANCH   9  11
ATOM     11  C   UNL     1       8.300  -0.667   0.000  0.00  0.00    +0.000 C 
BRANCH  11  12
ATOM     12  C   UNL     1       8.917  -1.029   0.000  0.00  0.00    +0.000 C 
ATOM     13  C   UNL     1       8.454  -1.425   0.000  0.00  0.00    +0.000 C 
ATOM     14  C   UNL     1       9.429  -1.438   0.000  0.00  0.00    +0.000 C 
BRANCH  12  15
ATOM     15  C   UNL     1       9.542  -0.667   0.000  0.00  0.00    +0.000 C 
ATOM     16  O   UNL     1       9.542   0.050   0.000  0.00  0.00    +0.000 OA
ATOM     17  N   UNL     1      10.167  -1.029   0.000  0.00  0.00    +0.000 NA
ENDBRANCH  12  15
ENDBRANCH  11  12
ENDBRANCH   9  11
ENDBRANCH   7   8
BRANCH   7  18
ATOM     18  C   UNL     1       6.429  -1.750   0.000  0.00  0.00    +0.000 C 
ATOM     19  C   UNL     1       5.862  -2.129   0.000  0.00  0.00    +0.000 C 
ATOM     20  C   UNL     1       6.954  -2.104   0.000  0.00  0.00    +0.000 C 
ENDBRANCH   7  18
ENDBRANCH   6   7
ENDBRANCH   4   6
ENDBRANCH   2   4
ENDBRANCH   1   2
BRANCH   1  21
ATOM     21  C   UNL     1       3.329  -0.667   0.000  0.00  0.00    +0.000 C 
BRANCH  21  22
ATOM     22  C   UNL     1       3.329   0.050   0.000  0.00  0.00    +0.000 C 
ATOM     23  C   UNL     1       2.712   0.625   0.000  0.00  0.00    +0.000 C 
ATOM     24  C   UNL     1       3.837   0.562   0.000  0.00  0.00    +0.000 C 
ENDBRANCH  21  22
BRANCH  21  25
ATOM     25  C   UNL     1       2.712  -1.029   0.000  0.00  0.00    +0.000 C 
BRANCH  25  29
ATOM     26  C   UNL     1       0.842  -0.675   0.000  0.00  0.00    +0.000 A 
ATOM     27  C   UNL     1       0.838   0.058   0.000  0.00  0.00    +0.000 A 
ATOM     28  C   UNL     1       1.467  -1.029   0.000  0.00  0.00    +0.000 A 
ATOM     29  C   UNL     1       2.087  -0.667   0.000  0.00  0.00    +0.000 A 
ATOM     30  C   UNL     1       1.462   0.412   0.000  0.00  0.00    +0.000 A 
ATOM     31  C   UNL     1       2.087   0.058   0.000  0.00  0.00    +0.000 A 
BRANCH  27  32
ATOM     32  O   UNL     1       0.212   0.412   0.000  0.00  0.00    +0.000 OA
ATOM     33  C   UNL     1       0.204   1.133   0.000  0.00  0.00    +0.000 C 
ENDBRANCH  27  32
BRANCH  26  34
ATOM     34  O   UNL     1       0.217  -1.029   0.000  0.00  0.00    +0.000 OA
BRANCH  34  35
ATOM     35  C   UNL     1      -0.408  -0.667   0.000  0.00  0.00    +0.000 C 
BRANCH  35  36
ATOM     36  C   UNL     1      -1.033  -1.025   0.000  0.00  0.00    +0.000 C 
BRANCH  36  37
ATOM     37  C   UNL     1      -1.658  -0.667   0.000  0.00  0.00    +0.000 C 
BRANCH  37  38
ATOM     38  O   UNL     1      -2.283  -1.025   0.000  0.00  0.00    +0.000 OA
ATOM     39  C   UNL     1      -2.896  -0.662   0.000  0.00  0.00    +0.000 C 
ENDBRANCH  37  38
ENDBRANCH  36  37
ENDBRANCH  35  36
ENDBRANCH  34  35
ENDBRANCH  26  34
ENDBRANCH  25  29
ENDBRANCH  21  25
ENDBRANCH   1  21
TORSDOF 19
