REMARK  Name = 
REMARK  4 active torsions:
REMARK  status: ('A' for Active; 'I' for Inactive)
REMARK    1  A    between atoms: C_1  and  C_3
REMARK    2  A    between atoms: C_1  and  C_4
REMARK    3  A    between atoms: C_1  and  C_5
REMARK    4  A    between atoms: C_3  and  C_6
REMARK                            x       y       z     vdW  Elec       q    Type
REMARK                         _______ _______ _______ _____ _____    ______ ____
ROOT
ATOM      1  C   UNL     1       0.542   1.696   0.000  0.00  0.00    +0.000 C 
ENDROOT
BRANCH   1   2
ATOM      2  C   UNL     1      -0.471   1.946   0.000  0.00  0.00    +0.000 C 
ATOM      3  C   UNL     1      -0.762   2.946   0.000  0.00  0.00    +0.000 C 
ATOM      4  C   UNL     1      -1.196   1.175   0.000  0.00  0.00    +0.000 C 
ATOM      5  C   UNL     1      -1.783   3.196   0.000  0.00  0.00    +0.000 C 
ATOM      6  C   UNL     1      -2.212   1.421   0.000  0.00  0.00    +0.000 C 
ATOM      7  C   UNL     1      -2.521   2.421   0.000  0.00  0.00    +0.000 C 
ENDBRANCH   1   2
BRANCH   1   8
ATOM      8  C   UNL     1       0.838   0.683   0.000  0.00  0.00    +0.000 C 
ATOM      9  C   UNL     1       0.117  -0.062   0.000  0.00  0.00    +0.000 C 
ATOM     10  C   UNL     1       1.850   0.438   0.000  0.00  0.00    +0.000 C 
ATOM     11  C   UNL     1       2.142  -0.575   0.000  0.00  0.00    +0.000 C 
ATOM     12  C   UNL     1       0.404  -1.054   0.000  0.00  0.00    +0.000 C 
ATOM     13  C   UNL     1       1.438  -1.312   0.000  0.00  0.00    +0.000 C 
ENDBRANCH   1   8
BRANCH   1  14
ATOM     14  C   UNL     1       1.279   2.458   0.000  0.00  0.00    +0.000 C 
BRANCH  14  16
ATOM     15  N   UNL     1       3.042   2.946   0.000  0.00  0.00    +0.000 NA
ATOM     16  C   UNL     1       2.300   2.196   0.000  0.00  0.00    +0.000 C 
ATOM     17  C   UNL     1       4.062   2.675   0.000  0.00  0.00    +0.000 C 
ATOM     18  C   UNL     1       2.579   1.183   0.000  0.00  0.00    +0.000 C 
ATOM     19  C   UNL     1       4.342   1.663   0.000  0.00  0.00    +0.000 C 
ATOM     20  C   UNL     1       3.600   0.925   0.000  0.00  0.00    +0.000 C 
ENDBRANCH  14  16
ENDBRANCH   1  14
TORSDOF 4
