MODEL 1
REMARK VINA RESULT:      -9.8      0.000      0.000
REMARK  Name = 
REMARK  7 active torsions:
REMARK  status: ('A' for Active; 'I' for Inactive)
REMARK    1  A    between atoms: C_1  and  C_10
REMARK    2  A    between atoms: C_3  and  C_8
REMARK    3  A    between atoms: C_4  and  O_21
REMARK    4  A    between atoms: C_6  and  O_22
REMARK    5  A    between atoms: C_7  and  O_23
REMARK    6  A    between atoms: N_9  and  C_10
REMARK    7  A    between atoms: C_11  and  C_12
REMARK                            x       y       z     vdW  Elec       q    Type
REMARK                         _______ _______ _______ _____ _____    ______ ____
ROOT
ATOM      1  N   UNL     1     105.365 143.196 158.527  0.00  0.00    +0.000 N 
ATOM      2  C   UNL     1     105.681 143.632 159.007  0.00  0.00    +0.000 C 
ATOM      3  N   UNL     1     104.721 142.308 157.546  0.00  0.00    +0.000 NA
ATOM      4  C   UNL     1     105.235 143.443 157.841  0.00  0.00    +0.000 C 
ATOM      5  C   UNL     1     105.161 142.494 158.697  0.00  0.00    +0.000 C 
ATOM      6  O   UNL     1     105.880 144.321 158.837  0.00  0.00    +0.000 OA
ATOM      7  C   UNL     1     104.933 143.044 157.363  0.00  0.00    +0.000 C 
ATOM      8  C   UNL     1     104.856 142.079 158.227  0.00  0.00    +0.000 C 
ENDROOT
BRANCH   2   9
ATOM      9  C   UNL     1     105.806 143.382 159.681  0.00  0.00    +0.000 C 
ATOM     10  C   UNL     1     106.214 143.778 160.138  0.00  0.00    +0.000 C 
BRANCH  10  14
ATOM     11  C   UNL     1     106.593 143.039 162.167  0.00  0.00    +0.000 A 
ATOM     12  C   UNL     1     106.191 143.631 162.066  0.00  0.00    +0.000 A 
ATOM     13  C   UNL     1     106.877 142.681 161.588  0.00  0.00    +0.000 A 
ATOM     14  C   UNL     1     106.342 143.529 160.816  0.00  0.00    +0.000 A 
ATOM     15  C   UNL     1     106.060 143.884 161.389  0.00  0.00    +0.000 A 
ATOM     16  C   UNL     1     106.748 142.931 160.908  0.00  0.00    +0.000 A 
BRANCH  11  17
ATOM     17  O   UNL     1     106.727 142.782 162.844  0.00  0.00    +0.000 OA
ATOM     18  C   UNL     1     107.304 143.017 163.236  0.00  0.00    +0.000 C 
ENDBRANCH  11  17
BRANCH  12  19
ATOM     19  O   UNL     1     105.912 143.983 162.635  0.00  0.00    +0.000 OA
ATOM     20  C   UNL     1     105.524 144.609 162.535  0.00  0.00    +0.000 C 
ENDBRANCH  12  19
BRANCH  13  21
ATOM     21  O   UNL     1     107.285 142.079 161.689  0.00  0.00    +0.000 OA
ATOM     22  C   UNL     1     107.312 141.563 161.205  0.00  0.00    +0.000 C 
ENDBRANCH  13  21
ENDBRANCH  10  14
ENDBRANCH   2   9
BRANCH   3  23
ATOM     23  C   UNL     1     104.400 141.867 157.059  0.00  0.00    +0.000 C 
BRANCH  23  24
ATOM     24  C   UNL     1     104.759 141.610 156.505  0.00  0.00    +0.000 C 
ATOM     25  N   UNL     1     104.445 141.169 156.028  0.00  0.00    +0.000 N 
ATOM     26  O   UNL     1     105.469 141.799 156.414  0.00  0.00    +0.000 OA
ATOM     27  C   UNL     1     103.762 140.902 155.992  0.00  0.00    +0.000 C 
ATOM     28  C   UNL     1     104.812 140.906 155.460  0.00  0.00    +0.000 C 
ATOM     29  C   UNL     1     103.721 140.477 155.400  0.00  0.00    +0.000 C 
ATOM     30  C   UNL     1     104.362 140.473 155.065  0.00  0.00    +0.000 C 
ENDBRANCH  23  24
ENDBRANCH   3  23
TORSDOF 7
ENDMDL
MODEL 2
REMARK VINA RESULT:      -9.7     43.564     45.845
REMARK  Name = 
REMARK  7 active torsions:
REMARK  status: ('A' for Active; 'I' for Inactive)
REMARK    1  A    between atoms: C_1  and  C_10
REMARK    2  A    between atoms: C_3  and  C_8
REMARK    3  A    between atoms: C_4  and  O_21
REMARK    4  A    between atoms: C_6  and  O_22
REMARK    5  A    between atoms: C_7  and  O_23
REMARK    6  A    between atoms: N_9  and  C_10
REMARK    7  A    between atoms: C_11  and  C_12
REMARK                            x       y       z     vdW  Elec       q    Type
REMARK                         _______ _______ _______ _____ _____    ______ ____
ROOT
ATOM      1  N   UNL     1     108.447 131.727 204.146  0.00  0.00    +0.000 N 
ATOM      2  C   UNL     1     109.014 132.174 204.131  0.00  0.00    +0.000 C 
ATOM      3  N   UNL     1     107.291 130.817 204.177  0.00  0.00    +0.000 NA
ATOM      4  C   UNL     1     108.003 131.722 204.738  0.00  0.00    +0.000 C 
ATOM      5  C   UNL     1     108.289 131.263 203.578  0.00  0.00    +0.000 C 
ATOM      6  O   UNL     1     109.167 132.629 204.690  0.00  0.00    +0.000 OA
ATOM      7  C   UNL     1     107.454 131.304 204.775  0.00  0.00    +0.000 C 
ATOM      8  C   UNL     1     107.740 130.834 203.600  0.00  0.00    +0.000 C 
ENDROOT
BRANCH   2   9
ATOM      9  C   UNL     1     109.448 132.173 203.544  0.00  0.00    +0.000 C 
ATOM     10  C   UNL     1     110.057 132.574 203.551  0.00  0.00    +0.000 C 
BRANCH  10  14
ATOM     11  C   UNL     1     111.368 132.574 201.794  0.00  0.00    +0.000 A 
ATOM     12  C   UNL     1     111.410 132.039 202.277  0.00  0.00    +0.000 A 
ATOM     13  C   UNL     1     110.885 133.122 201.889  0.00  0.00    +0.000 A 
ATOM     14  C   UNL     1     110.495 132.576 202.963  0.00  0.00    +0.000 A 
ATOM     15  C   UNL     1     110.973 132.033 202.869  0.00  0.00    +0.000 A 
ATOM     16  C   UNL     1     110.445 133.120 202.480  0.00  0.00    +0.000 A 
BRANCH  11  17
ATOM     17  O   UNL     1     111.805 132.584 201.200  0.00  0.00    +0.000 OA
ATOM     18  C   UNL     1     111.622 132.223 200.585  0.00  0.00    +0.000 C 
ENDBRANCH  11  17
BRANCH  12  19
ATOM     19  O   UNL     1     111.886 131.500 202.184  0.00  0.00    +0.000 OA
ATOM     20  C   UNL     1     112.104 131.088 202.763  0.00  0.00    +0.000 C 
ENDBRANCH  12  19
BRANCH  13  21
ATOM     21  O   UNL     1     110.841 133.667 201.399  0.00  0.00    +0.000 OA
ATOM     22  C   UNL     1     110.664 134.326 201.590  0.00  0.00    +0.000 C 
ENDBRANCH  13  21
ENDBRANCH  10  14
ENDBRANCH   2   9
BRANCH   3  23
ATOM     23  C   UNL     1     106.717 130.366 204.193  0.00  0.00    +0.000 C 
BRANCH  23  24
ATOM     24  C   UNL     1     106.781 129.699 204.423  0.00  0.00    +0.000 C 
ATOM     25  N   UNL     1     106.207 129.263 204.473  0.00  0.00    +0.000 N 
ATOM     26  O   UNL     1     107.449 129.443 204.615  0.00  0.00    +0.000 OA
ATOM     27  C   UNL     1     105.498 129.378 204.321  0.00  0.00    +0.000 C 
ATOM     28  C   UNL     1     106.272 128.581 204.709  0.00  0.00    +0.000 C 
ATOM     29  C   UNL     1     105.137 128.761 204.466  0.00  0.00    +0.000 C 
ATOM     30  C   UNL     1     105.604 128.263 204.705  0.00  0.00    +0.000 C 
ENDBRANCH  23  24
ENDBRANCH   3  23
TORSDOF 7
ENDMDL
MODEL 3
REMARK VINA RESULT:      -9.0     51.301     52.587
REMARK  Name = 
REMARK  7 active torsions:
REMARK  status: ('A' for Active; 'I' for Inactive)
REMARK    1  A    between atoms: C_1  and  C_10
REMARK    2  A    between atoms: C_3  and  C_8
REMARK    3  A    between atoms: C_4  and  O_21
REMARK    4  A    between atoms: C_6  and  O_22
REMARK    5  A    between atoms: C_7  and  O_23
REMARK    6  A    between atoms: N_9  and  C_10
REMARK    7  A    between atoms: C_11  and  C_12
REMARK                            x       y       z     vdW  Elec       q    Type
REMARK                         _______ _______ _______ _____ _____    ______ ____
ROOT
ATOM      1  N   UNL     1     151.330 133.706 137.060  0.00  0.00    +0.000 N 
ATOM      2  C   UNL     1     150.874 133.784 136.506  0.00  0.00    +0.000 C 
ATOM      3  N   UNL     1     152.259 133.547 138.190  0.00  0.00    +0.000 NA
ATOM      4  C   UNL     1     151.166 134.015 137.712  0.00  0.00    +0.000 C 
ATOM      5  C   UNL     1     151.970 133.319 136.999  0.00  0.00    +0.000 C 
ATOM      6  O   UNL     1     150.246 134.164 136.569  0.00  0.00    +0.000 OA
ATOM      7  C   UNL     1     151.587 133.954 138.258  0.00  0.00    +0.000 C 
ATOM      8  C   UNL     1     152.406 133.248 137.539  0.00  0.00    +0.000 C 
ENDROOT
BRANCH   2   9
ATOM      9  C   UNL     1     151.042 133.477 135.865  0.00  0.00    +0.000 C 
ATOM     10  C   UNL     1     150.578 133.543 135.307  0.00  0.00    +0.000 C 
BRANCH  10  14
ATOM     11  C   UNL     1     151.075 132.628 133.377  0.00  0.00    +0.000 A 
ATOM     12  C   UNL     1     151.245 133.318 133.506  0.00  0.00    +0.000 A 
ATOM     13  C   UNL     1     150.734 132.228 133.894  0.00  0.00    +0.000 A 
ATOM     14  C   UNL     1     150.744 133.235 134.662  0.00  0.00    +0.000 A 
ATOM     15  C   UNL     1     151.082 133.631 134.150  0.00  0.00    +0.000 A 
ATOM     16  C   UNL     1     150.568 132.538 134.542  0.00  0.00    +0.000 A 
BRANCH  11  17
ATOM     17  O   UNL     1     151.238 132.310 132.733  0.00  0.00    +0.000 OA
ATOM     18  C   UNL     1     151.893 131.996 132.615  0.00  0.00    +0.000 C 
ENDBRANCH  11  17
BRANCH  12  19
ATOM     19  O   UNL     1     151.581 133.711 132.997  0.00  0.00    +0.000 OA
ATOM     20  C   UNL     1     151.437 134.437 132.929  0.00  0.00    +0.000 C 
ENDBRANCH  12  19
BRANCH  13  21
ATOM     21  O   UNL     1     150.560 131.526 133.766  0.00  0.00    +0.000 OA
ATOM     22  C   UNL     1     149.995 131.223 134.067  0.00  0.00    +0.000 C 
ENDBRANCH  13  21
ENDBRANCH  10  14
ENDBRANCH   2   9
BRANCH   3  23
ATOM     23  C   UNL     1     152.720 133.469 138.751  0.00  0.00    +0.000 C 
BRANCH  23  24
ATOM     24  C   UNL     1     152.635 132.951 139.227  0.00  0.00    +0.000 C 
ATOM     25  N   UNL     1     153.084 132.879 139.788  0.00  0.00    +0.000 N 
ATOM     26  O   UNL     1     152.074 132.473 139.146  0.00  0.00    +0.000 OA
ATOM     27  C   UNL     1     153.670 133.271 139.991  0.00  0.00    +0.000 C 
ATOM     28  C   UNL     1     152.996 132.349 140.275  0.00  0.00    +0.000 C 
ATOM     29  C   UNL     1     153.935 132.974 140.602  0.00  0.00    +0.000 C 
ATOM     30  C   UNL     1     153.528 132.405 140.786  0.00  0.00    +0.000 C 
ENDBRANCH  23  24
ENDBRANCH   3  23
TORSDOF 7
ENDMDL
MODEL 4
REMARK VINA RESULT:      -8.9     43.916     46.501
REMARK  Name = 
REMARK  7 active torsions:
REMARK  status: ('A' for Active; 'I' for Inactive)
REMARK    1  A    between atoms: C_1  and  C_10
REMARK    2  A    between atoms: C_3  and  C_8
REMARK    3  A    between atoms: C_4  and  O_21
REMARK    4  A    between atoms: C_6  and  O_22
REMARK    5  A    between atoms: C_7  and  O_23
REMARK    6  A    between atoms: N_9  and  C_10
REMARK    7  A    between atoms: C_11  and  C_12
REMARK                            x       y       z     vdW  Elec       q    Type
REMARK                         _______ _______ _______ _____ _____    ______ ____
ROOT
ATOM      1  N   UNL     1     107.581 130.452 203.968  0.00  0.00    +0.000 N 
ATOM      2  C   UNL     1     107.124 130.288 204.503  0.00  0.00    +0.000 C 
ATOM      3  N   UNL     1     108.513 130.788 202.880  0.00  0.00    +0.000 NA
ATOM      4  C   UNL     1     108.050 131.019 204.051  0.00  0.00    +0.000 C 
ATOM      5  C   UNL     1     107.600 130.066 203.325  0.00  0.00    +0.000 C 
ATOM      6  O   UNL     1     107.109 130.669 205.133  0.00  0.00    +0.000 OA
ATOM      7  C   UNL     1     108.497 131.196 203.554  0.00  0.00    +0.000 C 
ATOM      8  C   UNL     1     108.044 130.231 202.814  0.00  0.00    +0.000 C 
ENDROOT
BRANCH   2   9
ATOM      9  C   UNL     1     106.665 129.727 204.414  0.00  0.00    +0.000 C 
ATOM     10  C   UNL     1     106.159 129.599 204.922  0.00  0.00    +0.000 C 
BRANCH  10  14
ATOM     11  C   UNL     1     104.772 127.921 204.662  0.00  0.00    +0.000 A 
ATOM     12  C   UNL     1     104.617 128.566 204.378  0.00  0.00    +0.000 A 
ATOM     13  C   UNL     1     105.396 127.823 205.040  0.00  0.00    +0.000 A 
ATOM     14  C   UNL     1     105.696 129.036 204.836  0.00  0.00    +0.000 A 
ATOM     15  C   UNL     1     105.077 129.133 204.461  0.00  0.00    +0.000 A 
ATOM     16  C   UNL     1     105.861 128.388 205.126  0.00  0.00    +0.000 A 
BRANCH  11  17
ATOM     17  O   UNL     1     104.313 127.350 204.581  0.00  0.00    +0.000 OA
ATOM     18  C   UNL     1     104.352 126.908 203.993  0.00  0.00    +0.000 C 
ENDBRANCH  11  17
BRANCH  12  19
ATOM     19  O   UNL     1     104.002 128.663 204.006  0.00  0.00    +0.000 OA
ATOM     20  C   UNL     1     103.679 129.332 203.981  0.00  0.00    +0.000 C 
ENDBRANCH  12  19
BRANCH  13  21
ATOM     21  O   UNL     1     105.556 127.167 205.330  0.00  0.00    +0.000 OA
ATOM     22  C   UNL     1     105.873 127.107 205.960  0.00  0.00    +0.000 C 
ENDBRANCH  13  21
ENDBRANCH  10  14
ENDBRANCH   2   9
BRANCH   3  23
ATOM     23  C   UNL     1     108.976 130.954 202.339  0.00  0.00    +0.000 C 
BRANCH  23  24
ATOM     24  C   UNL     1     109.606 130.637 202.285  0.00  0.00    +0.000 C 
ATOM     25  N   UNL     1     110.047 130.771 201.729  0.00  0.00    +0.000 N 
ATOM     26  O   UNL     1     109.818 130.158 202.809  0.00  0.00    +0.000 OA
ATOM     27  C   UNL     1     109.971 131.213 201.148  0.00  0.00    +0.000 C 
ATOM     28  C   UNL     1     110.692 130.446 201.673  0.00  0.00    +0.000 C 
ATOM     29  C   UNL     1     110.574 131.152 200.742  0.00  0.00    +0.000 C 
ATOM     30  C   UNL     1     111.025 130.682 201.057  0.00  0.00    +0.000 C 
ENDBRANCH  23  24
ENDBRANCH   3  23
TORSDOF 7
ENDMDL
MODEL 5
REMARK VINA RESULT:      -8.8     51.589     52.904
REMARK  Name = 
REMARK  7 active torsions:
REMARK  status: ('A' for Active; 'I' for Inactive)
REMARK    1  A    between atoms: C_1  and  C_10
REMARK    2  A    between atoms: C_3  and  C_8
REMARK    3  A    between atoms: C_4  and  O_21
REMARK    4  A    between atoms: C_6  and  O_22
REMARK    5  A    between atoms: C_7  and  O_23
REMARK    6  A    between atoms: N_9  and  C_10
REMARK    7  A    between atoms: C_11  and  C_12
REMARK                            x       y       z     vdW  Elec       q    Type
REMARK                         _______ _______ _______ _____ _____    ______ ____
ROOT
ATOM      1  N   UNL     1     151.293 132.425 136.980  0.00  0.00    +0.000 N 
ATOM      2  C   UNL     1     150.980 132.445 136.330  0.00  0.00    +0.000 C 
ATOM      3  N   UNL     1     151.930 132.387 138.306  0.00  0.00    +0.000 NA
ATOM      4  C   UNL     1     151.125 132.945 137.481  0.00  0.00    +0.000 C 
ATOM      5  C   UNL     1     151.786 131.893 137.171  0.00  0.00    +0.000 C 
ATOM      6  O   UNL     1     150.495 132.969 136.146  0.00  0.00    +0.000 OA
ATOM      7  C   UNL     1     151.412 132.948 138.110  0.00  0.00    +0.000 C 
ATOM      8  C   UNL     1     152.084 131.881 137.801  0.00  0.00    +0.000 C 
ENDROOT
BRANCH   2   9
ATOM      9  C   UNL     1     151.149 131.929 135.842  0.00  0.00    +0.000 C 
ATOM     10  C   UNL     1     150.809 131.924 135.197  0.00  0.00    +0.000 C 
BRANCH  10  14
ATOM     11  C   UNL     1     151.307 130.377 133.727  0.00  0.00    +0.000 A 
ATOM     12  C   UNL     1     150.804 130.250 134.229  0.00  0.00    +0.000 A 
ATOM     13  C   UNL     1     151.655 131.026 133.706  0.00  0.00    +0.000 A 
ATOM     14  C   UNL     1     150.977 131.408 134.705  0.00  0.00    +0.000 A 
ATOM     15  C   UNL     1     150.632 130.765 134.725  0.00  0.00    +0.000 A 
ATOM     16  C   UNL     1     151.486 131.544 134.202  0.00  0.00    +0.000 A 
BRANCH  11  17
ATOM     17  O   UNL     1     151.482 129.864 133.228  0.00  0.00    +0.000 OA
ATOM     18  C   UNL     1     152.023 129.379 133.350  0.00  0.00    +0.000 C 
ENDBRANCH  11  17
BRANCH  12  19
ATOM     19  O   UNL     1     150.461 129.612 134.249  0.00  0.00    +0.000 OA
ATOM     20  C   UNL     1     149.763 129.568 134.502  0.00  0.00    +0.000 C 
ENDBRANCH  12  19
BRANCH  13  21
ATOM     21  O   UNL     1     152.168 131.156 133.196  0.00  0.00    +0.000 OA
ATOM     22  C   UNL     1     152.302 131.811 132.964  0.00  0.00    +0.000 C 
ENDBRANCH  13  21
ENDBRANCH  10  14
ENDBRANCH   2   9
BRANCH   3  23
ATOM     23  C   UNL     1     152.247 132.368 138.964  0.00  0.00    +0.000 C 
BRANCH  23  24
ATOM     24  C   UNL     1     152.830 132.745 139.102  0.00  0.00    +0.000 C 
ATOM     25  N   UNL     1     153.129 132.747 139.760  0.00  0.00    +0.000 N 
ATOM     26  O   UNL     1     153.139 133.147 138.562  0.00  0.00    +0.000 OA
ATOM     27  C   UNL     1     152.936 132.404 140.379  0.00  0.00    +0.000 C 
ATOM     28  C   UNL     1     153.726 133.133 139.901  0.00  0.00    +0.000 C 
ATOM     29  C   UNL     1     153.420 132.586 140.894  0.00  0.00    +0.000 C 
ATOM     30  C   UNL     1     153.911 133.035 140.610  0.00  0.00    +0.000 C 
ENDBRANCH  23  24
ENDBRANCH   3  23
TORSDOF 7
ENDMDL
MODEL 6
REMARK VINA RESULT:      -8.7     48.889     50.410
REMARK  Name = 
REMARK  7 active torsions:
REMARK  status: ('A' for Active; 'I' for Inactive)
REMARK    1  A    between atoms: C_1  and  C_10
REMARK    2  A    between atoms: C_3  and  C_8
REMARK    3  A    between atoms: C_4  and  O_21
REMARK    4  A    between atoms: C_6  and  O_22
REMARK    5  A    between atoms: C_7  and  O_23
REMARK    6  A    between atoms: N_9  and  C_10
REMARK    7  A    between atoms: C_11  and  C_12
REMARK                            x       y       z     vdW  Elec       q    Type
REMARK                         _______ _______ _______ _____ _____    ______ ____
ROOT
ATOM      1  N   UNL     1     146.051 130.386 133.632  0.00  0.00    +0.000 N 
ATOM      2  C   UNL     1     146.494 129.855 133.841  0.00  0.00    +0.000 C 
ATOM      3  N   UNL     1     145.149 131.467 133.208  0.00  0.00    +0.000 NA
ATOM      4  C   UNL     1     145.326 130.331 133.772  0.00  0.00    +0.000 C 
ATOM      5  C   UNL     1     146.301 130.997 133.276  0.00  0.00    +0.000 C 
ATOM      6  O   UNL     1     146.245 129.256 134.191  0.00  0.00    +0.000 OA
ATOM      7  C   UNL     1     144.882 130.827 133.582  0.00  0.00    +0.000 C 
ATOM      8  C   UNL     1     145.867 131.506 133.078  0.00  0.00    +0.000 C 
ENDROOT
BRANCH   2   9
ATOM      9  C   UNL     1     147.207 129.915 133.701  0.00  0.00    +0.000 C 
ATOM     10  C   UNL     1     147.645 129.347 133.830  0.00  0.00    +0.000 C 
BRANCH  10  14
ATOM     11  C   UNL     1     149.789 129.518 133.406  0.00  0.00    +0.000 A 
ATOM     12  C   UNL     1     149.316 129.453 132.864  0.00  0.00    +0.000 A 
ATOM     13  C   UNL     1     149.553 129.527 134.104  0.00  0.00    +0.000 A 
ATOM     14  C   UNL     1     148.362 129.404 133.690  0.00  0.00    +0.000 A 
ATOM     15  C   UNL     1     148.596 129.395 132.999  0.00  0.00    +0.000 A 
ATOM     16  C   UNL     1     148.832 129.470 134.244  0.00  0.00    +0.000 A 
BRANCH  11  17
ATOM     17  O   UNL     1     150.512 129.576 133.275  0.00  0.00    +0.000 OA
ATOM     18  C   UNL     1     150.933 128.980 133.181  0.00  0.00    +0.000 C 
ENDBRANCH  11  17
BRANCH  12  19
ATOM     19  O   UNL     1     149.549 129.444 132.177  0.00  0.00    +0.000 OA
ATOM     20  C   UNL     1     149.188 129.829 131.654  0.00  0.00    +0.000 C 
ENDBRANCH  12  19
BRANCH  13  21
ATOM     21  O   UNL     1     150.032 129.594 134.657  0.00  0.00    +0.000 OA
ATOM     22  C   UNL     1     149.817 129.680 135.326  0.00  0.00    +0.000 C 
ENDBRANCH  13  21
ENDBRANCH  10  14
ENDBRANCH   2   9
BRANCH   3  23
ATOM     23  C   UNL     1     144.700 132.004 132.996  0.00  0.00    +0.000 C 
BRANCH  23  24
ATOM     24  C   UNL     1     144.370 131.982 132.370  0.00  0.00    +0.000 C 
ATOM     25  N   UNL     1     143.903 132.497 132.174  0.00  0.00    +0.000 N 
ATOM     26  O   UNL     1     144.507 131.420 131.908  0.00  0.00    +0.000 OA
ATOM     27  C   UNL     1     143.674 133.101 132.524  0.00  0.00    +0.000 C 
ATOM     28  C   UNL     1     143.565 132.474 131.533  0.00  0.00    +0.000 C 
ATOM     29  C   UNL     1     143.197 133.441 132.089  0.00  0.00    +0.000 C 
ATOM     30  C   UNL     1     143.122 133.064 131.477  0.00  0.00    +0.000 C 
ENDBRANCH  23  24
ENDBRANCH   3  23
TORSDOF 7
ENDMDL
MODEL 7
REMARK VINA RESULT:      -8.6      1.471      2.046
REMARK  Name = 
REMARK  7 active torsions:
REMARK  status: ('A' for Active; 'I' for Inactive)
REMARK    1  A    between atoms: C_1  and  C_10
REMARK    2  A    between atoms: C_3  and  C_8
REMARK    3  A    between atoms: C_4  and  O_21
REMARK    4  A    between atoms: C_6  and  O_22
REMARK    5  A    between atoms: C_7  and  O_23
REMARK    6  A    between atoms: N_9  and  C_10
REMARK    7  A    between atoms: C_11  and  C_12
REMARK                            x       y       z     vdW  Elec       q    Type
REMARK                         _______ _______ _______ _____ _____    ______ ____
ROOT
ATOM      1  N   UNL     1     105.424 144.146 157.450  0.00  0.00    +0.000 N 
ATOM      2  C   UNL     1     105.759 144.621 157.878  0.00  0.00    +0.000 C 
ATOM      3  N   UNL     1     104.743 143.179 156.575  0.00  0.00    +0.000 NA
ATOM      4  C   UNL     1     105.644 144.073 156.746  0.00  0.00    +0.000 C 
ATOM      5  C   UNL     1     104.857 143.720 157.692  0.00  0.00    +0.000 C 
ATOM      6  O   UNL     1     106.317 145.038 157.637  0.00  0.00    +0.000 OA
ATOM      7  C   UNL     1     105.339 143.625 156.316  0.00  0.00    +0.000 C 
ATOM      8  C   UNL     1     104.538 143.263 157.271  0.00  0.00    +0.000 C 
ENDROOT
BRANCH   2   9
ATOM      9  C   UNL     1     105.537 144.688 158.570  0.00  0.00    +0.000 C 
ATOM     10  C   UNL     1     105.910 145.122 159.023  0.00  0.00    +0.000 C 
BRANCH  10  14
ATOM     11  C   UNL     1     105.248 145.335 161.102  0.00  0.00    +0.000 A 
ATOM     12  C   UNL     1     105.065 145.831 160.611  0.00  0.00    +0.000 A 
ATOM     13  C   UNL     1     105.659 144.755 160.907  0.00  0.00    +0.000 A 
ATOM     14  C   UNL     1     105.689 145.191 159.719  0.00  0.00    +0.000 A 
ATOM     15  C   UNL     1     105.283 145.766 159.912  0.00  0.00    +0.000 A 
ATOM     16  C   UNL     1     105.880 144.685 160.208  0.00  0.00    +0.000 A 
BRANCH  11  17
ATOM     17  O   UNL     1     105.032 145.397 161.804  0.00  0.00    +0.000 OA
ATOM     18  C   UNL     1     104.362 145.180 162.018  0.00  0.00    +0.000 C 
ENDBRANCH  11  17
BRANCH  12  19
ATOM     19  O   UNL     1     104.661 146.402 160.803  0.00  0.00    +0.000 OA
ATOM     20  C   UNL     1     104.756 147.059 160.467  0.00  0.00    +0.000 C 
ENDBRANCH  12  19
BRANCH  13  21
ATOM     21  O   UNL     1     105.847 144.249 161.405  0.00  0.00    +0.000 OA
ATOM     22  C   UNL     1     106.438 143.864 161.339  0.00  0.00    +0.000 C 
ENDBRANCH  13  21
ENDBRANCH  10  14
ENDBRANCH   2   9
BRANCH   3  23
ATOM     23  C   UNL     1     104.405 142.698 156.140  0.00  0.00    +0.000 C 
BRANCH  23  24
ATOM     24  C   UNL     1     104.598 142.017 156.125  0.00  0.00    +0.000 C 
ATOM     25  N   UNL     1     104.359 141.571 155.611  0.00  0.00    +0.000 N 
ATOM     26  O   UNL     1     105.054 141.758 156.649  0.00  0.00    +0.000 OA
ATOM     27  C   UNL     1     103.912 141.686 155.040  0.00  0.00    +0.000 C 
ATOM     28  C   UNL     1     104.557 140.874 155.596  0.00  0.00    +0.000 C 
ATOM     29  C   UNL     1     103.842 141.054 154.682  0.00  0.00    +0.000 C 
ATOM     30  C   UNL     1     104.235 140.547 155.015  0.00  0.00    +0.000 C 
ENDBRANCH  23  24
ENDBRANCH   3  23
TORSDOF 7
ENDMDL
MODEL 8
REMARK VINA RESULT:      -8.6     43.690     46.373
REMARK  Name = 
REMARK  7 active torsions:
REMARK  status: ('A' for Active; 'I' for Inactive)
REMARK    1  A    between atoms: C_1  and  C_10
REMARK    2  A    between atoms: C_3  and  C_8
REMARK    3  A    between atoms: C_4  and  O_21
REMARK    4  A    between atoms: C_6  and  O_22
REMARK    5  A    between atoms: C_7  and  O_23
REMARK    6  A    between atoms: N_9  and  C_10
REMARK    7  A    between atoms: C_11  and  C_12
REMARK                            x       y       z     vdW  Elec       q    Type
REMARK                         _______ _______ _______ _____ _____    ______ ____
ROOT
ATOM      1  N   UNL     1     107.160 130.211 204.374  0.00  0.00    +0.000 N 
ATOM      2  C   UNL     1     107.680 130.635 204.106  0.00  0.00    +0.000 C 
ATOM      3  N   UNL     1     106.100 129.350 204.920  0.00  0.00    +0.000 NA
ATOM      4  C   UNL     1     106.785 130.431 204.973  0.00  0.00    +0.000 C 
ATOM      5  C   UNL     1     106.983 129.551 204.065  0.00  0.00    +0.000 C 
ATOM      6  O   UNL     1     107.852 131.283 204.412  0.00  0.00    +0.000 OA
ATOM      7  C   UNL     1     106.283 130.043 205.248  0.00  0.00    +0.000 C 
ATOM      8  C   UNL     1     106.480 129.148 204.329  0.00  0.00    +0.000 C 
ENDROOT
BRANCH   2   9
ATOM      9  C   UNL     1     108.046 130.412 203.515  0.00  0.00    +0.000 C 
ATOM     10  C   UNL     1     108.636 130.783 203.301  0.00  0.00    +0.000 C 
BRANCH  10  14
ATOM     11  C   UNL     1     109.743 130.119 201.529  0.00  0.00    +0.000 A 
ATOM     12  C   UNL     1     109.789 129.746 202.146  0.00  0.00    +0.000 A 
ATOM     13  C   UNL     1     109.324 130.724 201.493  0.00  0.00    +0.000 A 
ATOM     14  C   UNL     1     109.006 130.562 202.707  0.00  0.00    +0.000 A 
ATOM     15  C   UNL     1     109.421 129.963 202.743  0.00  0.00    +0.000 A 
ATOM     16  C   UNL     1     108.953 130.945 202.089  0.00  0.00    +0.000 A 
BRANCH  11  17
ATOM     17  O   UNL     1     110.111 129.905 200.927  0.00  0.00    +0.000 OA
ATOM     18  C   UNL     1     109.810 129.444 200.439  0.00  0.00    +0.000 C 
ENDBRANCH  11  17
BRANCH  12  19
ATOM     19  O   UNL     1     110.201 129.150 202.181  0.00  0.00    +0.000 OA
ATOM     20  C   UNL     1     110.512 128.948 202.826  0.00  0.00    +0.000 C 
ENDBRANCH  12  19
BRANCH  13  21
ATOM     21  O   UNL     1     109.276 131.105 200.866  0.00  0.00    +0.000 OA
ATOM     22  C   UNL     1     109.233 131.812 200.864  0.00  0.00    +0.000 C 
ENDBRANCH  13  21
ENDBRANCH  10  14
ENDBRANCH   2   9
BRANCH   3  23
ATOM     23  C   UNL     1     105.574 128.922 205.192  0.00  0.00    +0.000 C 
BRANCH  23  24
ATOM     24  C   UNL     1     104.913 128.949 204.941  0.00  0.00    +0.000 C 
ATOM     25  N   UNL     1     104.391 128.528 205.210  0.00  0.00    +0.000 N 
ATOM     26  O   UNL     1     104.752 129.419 204.390  0.00  0.00    +0.000 OA
ATOM     27  C   UNL     1     104.404 128.025 205.745  0.00  0.00    +0.000 C 
ATOM     28  C   UNL     1     103.714 128.556 204.952  0.00  0.00    +0.000 C 
ATOM     29  C   UNL     1     103.731 127.751 205.808  0.00  0.00    +0.000 C 
ATOM     30  C   UNL     1     103.298 128.071 205.324  0.00  0.00    +0.000 C 
ENDBRANCH  23  24
ENDBRANCH   3  23
TORSDOF 7
ENDMDL
MODEL 9
REMARK VINA RESULT:      -8.6     44.941     46.069
REMARK  Name = 
REMARK  7 active torsions:
REMARK  status: ('A' for Active; 'I' for Inactive)
REMARK    1  A    between atoms: C_1  and  C_10
REMARK    2  A    between atoms: C_3  and  C_8
REMARK    3  A    between atoms: C_4  and  O_21
REMARK    4  A    between atoms: C_6  and  O_22
REMARK    5  A    between atoms: C_7  and  O_23
REMARK    6  A    between atoms: N_9  and  C_10
REMARK    7  A    between atoms: C_11  and  C_12
REMARK                            x       y       z     vdW  Elec       q    Type
REMARK                         _______ _______ _______ _____ _____    ______ ____
ROOT
ATOM      1  N   UNL     1     147.321 140.746 138.372  0.00  0.00    +0.000 N 
ATOM      2  C   UNL     1     147.029 141.047 137.784  0.00  0.00    +0.000 C 
ATOM      3  N   UNL     1     147.917 140.133 139.570  0.00  0.00    +0.000 NA
ATOM      4  C   UNL     1     148.037 140.859 138.522  0.00  0.00    +0.000 C 
ATOM      5  C   UNL     1     146.922 140.318 138.842  0.00  0.00    +0.000 C 
ATOM      6  O   UNL     1     147.424 141.467 137.325  0.00  0.00    +0.000 OA
ATOM      7  C   UNL     1     148.339 140.582 139.079  0.00  0.00    +0.000 C 
ATOM      8  C   UNL     1     147.211 140.031 139.408  0.00  0.00    +0.000 C 
ENDROOT
BRANCH   2   9
ATOM      9  C   UNL     1     146.323 140.931 137.643  0.00  0.00    +0.000 C 
ATOM     10  C   UNL     1     146.013 141.271 137.077  0.00  0.00    +0.000 C 
BRANCH  10  14
ATOM     11  C   UNL     1     143.893 140.926 136.640  0.00  0.00    +0.000 A 
ATOM     12  C   UNL     1     144.401 140.568 136.273  0.00  0.00    +0.000 A 
ATOM     13  C   UNL     1     144.084 141.409 137.163  0.00  0.00    +0.000 A 
ATOM     14  C   UNL     1     145.303 141.157 136.932  0.00  0.00    +0.000 A 
ATOM     15  C   UNL     1     145.114 140.678 136.415  0.00  0.00    +0.000 A 
ATOM     16  C   UNL     1     144.797 141.523 137.308  0.00  0.00    +0.000 A 
BRANCH  11  17
ATOM     17  O   UNL     1     143.177 140.818 136.502  0.00  0.00    +0.000 OA
ATOM     18  C   UNL     1     142.816 140.241 136.782  0.00  0.00    +0.000 C 
ENDBRANCH  11  17
BRANCH  12  19
ATOM     19  O   UNL     1     144.213 140.092 135.759  0.00  0.00    +0.000 OA
ATOM     20  C   UNL     1     144.568 140.087 135.106  0.00  0.00    +0.000 C 
ENDBRANCH  12  19
BRANCH  13  21
ATOM     21  O   UNL     1     143.568 141.774 137.537  0.00  0.00    +0.000 OA
ATOM     22  C   UNL     1     143.688 142.421 137.800  0.00  0.00    +0.000 C 
ENDBRANCH  13  21
ENDBRANCH  10  14
ENDBRANCH   2   9
BRANCH   3  23
ATOM     23  C   UNL     1     148.213 139.829 140.165  0.00  0.00    +0.000 C 
BRANCH  23  24
ATOM     24  C   UNL     1     148.189 140.153 140.794  0.00  0.00    +0.000 C 
ATOM     25  N   UNL     1     148.518 139.874 141.372  0.00  0.00    +0.000 N 
ATOM     26  O   UNL     1     147.820 140.792 140.859  0.00  0.00    +0.000 OA
ATOM     27  C   UNL     1     148.912 139.260 141.455  0.00  0.00    +0.000 C 
ATOM     28  C   UNL     1     148.494 140.206 142.016  0.00  0.00    +0.000 C 
ATOM     29  C   UNL     1     149.125 139.225 142.152  0.00  0.00    +0.000 C 
ATOM     30  C   UNL     1     148.873 139.803 142.507  0.00  0.00    +0.000 C 
ENDBRANCH  23  24
ENDBRANCH   3  23
TORSDOF 7
ENDMDL
MODEL 10
REMARK VINA RESULT:      -8.4     51.187     52.603
REMARK  Name = 
REMARK  7 active torsions:
REMARK  status: ('A' for Active; 'I' for Inactive)
REMARK    1  A    between atoms: C_1  and  C_10
REMARK    2  A    between atoms: C_3  and  C_8
REMARK    3  A    between atoms: C_4  and  O_21
REMARK    4  A    between atoms: C_6  and  O_22
REMARK    5  A    between atoms: C_7  and  O_23
REMARK    6  A    between atoms: N_9  and  C_10
REMARK    7  A    between atoms: C_11  and  C_12
REMARK                            x       y       z     vdW  Elec       q    Type
REMARK                         _______ _______ _______ _____ _____    ______ ____
ROOT
ATOM      1  N   UNL     1     148.506 129.825 133.379  0.00  0.00    +0.000 N 
ATOM      2  C   UNL     1     149.066 129.513 133.712  0.00  0.00    +0.000 C 
ATOM      3  N   UNL     1     147.365 130.461 132.702  0.00  0.00    +0.000 NA
ATOM      4  C   UNL     1     147.816 129.631 133.567  0.00  0.00    +0.000 C 
ATOM      5  C   UNL     1     148.597 130.344 132.845  0.00  0.00    +0.000 C 
ATOM      6  O   UNL     1     148.972 129.003 134.236  0.00  0.00    +0.000 OA
ATOM      7  C   UNL     1     147.264 129.916 133.263  0.00  0.00    +0.000 C 
ATOM      8  C   UNL     1     148.051 130.641 132.529  0.00  0.00    +0.000 C 
ENDROOT
BRANCH   2   9
ATOM      9  C   UNL     1     149.742 129.709 133.522  0.00  0.00    +0.000 C 
ATOM     10  C   UNL     1     150.309 129.426 133.883  0.00  0.00    +0.000 C 
BRANCH  10  14
ATOM     11  C   UNL     1     152.346 130.013 133.322  0.00  0.00    +0.000 A 
ATOM     12  C   UNL     1     151.956 130.433 133.762  0.00  0.00    +0.000 A 
ATOM     13  C   UNL     1     152.061 129.386 133.060  0.00  0.00    +0.000 A 
ATOM     14  C   UNL     1     150.991 129.621 133.694  0.00  0.00    +0.000 A 
ATOM     15  C   UNL     1     151.272 130.242 133.954  0.00  0.00    +0.000 A 
ATOM     16  C   UNL     1     151.376 129.191 133.250  0.00  0.00    +0.000 A 
BRANCH  11  17
ATOM     17  O   UNL     1     153.031 130.201 133.127  0.00  0.00    +0.000 OA
ATOM     18  C   UNL     1     153.610 130.023 133.545  0.00  0.00    +0.000 C 
ENDBRANCH  11  17
BRANCH  12  19
ATOM     19  O   UNL     1     152.236 131.050 134.019  0.00  0.00    +0.000 OA
ATOM     20  C   UNL     1     151.800 131.543 134.366  0.00  0.00    +0.000 C 
ENDBRANCH  12  19
BRANCH  13  21
ATOM     21  O   UNL     1     152.456 128.958 132.613  0.00  0.00    +0.000 OA
ATOM     22  C   UNL     1     152.182 128.375 132.319  0.00  0.00    +0.000 C 
ENDBRANCH  13  21
ENDBRANCH  10  14
ENDBRANCH   2   9
BRANCH   3  23
ATOM     23  C   UNL     1     146.798 130.776 132.366  0.00  0.00    +0.000 C 
BRANCH  23  24
ATOM     24  C   UNL     1     146.536 130.514 131.762  0.00  0.00    +0.000 C 
ATOM     25  N   UNL     1     145.958 130.808 131.445  0.00  0.00    +0.000 N 
ATOM     26  O   UNL     1     146.863 129.927 131.450  0.00  0.00    +0.000 OA
ATOM     27  C   UNL     1     145.540 131.380 131.637  0.00  0.00    +0.000 C 
ATOM     28  C   UNL     1     145.691 130.540 130.827  0.00  0.00    +0.000 C 
ATOM     29  C   UNL     1     145.020 131.455 131.131  0.00  0.00    +0.000 C 
ATOM     30  C   UNL     1     145.103 130.942 130.627  0.00  0.00    +0.000 C 
ENDBRANCH  23  24
ENDBRANCH   3  23
TORSDOF 7
ENDMDL
MODEL 11
REMARK VINA RESULT:      -8.4     48.978     50.582
REMARK  Name = 
REMARK  7 active torsions:
REMARK  status: ('A' for Active; 'I' for Inactive)
REMARK    1  A    between atoms: C_1  and  C_10
REMARK    2  A    between atoms: C_3  and  C_8
REMARK    3  A    between atoms: C_4  and  O_21
REMARK    4  A    between atoms: C_6  and  O_22
REMARK    5  A    between atoms: C_7  and  O_23
REMARK    6  A    between atoms: N_9  and  C_10
REMARK    7  A    between atoms: C_11  and  C_12
REMARK                            x       y       z     vdW  Elec       q    Type
REMARK                         _______ _______ _______ _____ _____    ______ ____
ROOT
ATOM      1  N   UNL     1     145.683 130.816 131.461  0.00  0.00    +0.000 N 
ATOM      2  C   UNL     1     146.237 130.394 131.271  0.00  0.00    +0.000 C 
ATOM      3  N   UNL     1     144.553 131.675 131.848  0.00  0.00    +0.000 NA
ATOM      4  C   UNL     1     145.018 130.704 131.155  0.00  0.00    +0.000 C 
ATOM      5  C   UNL     1     145.756 131.370 131.962  0.00  0.00    +0.000 C 
ATOM      6  O   UNL     1     146.162 129.851 130.778  0.00  0.00    +0.000 OA
ATOM      7  C   UNL     1     144.472 131.095 131.321  0.00  0.00    +0.000 C 
ATOM      8  C   UNL     1     145.216 131.773 132.140  0.00  0.00    +0.000 C 
ENDROOT
BRANCH   2   9
ATOM      9  C   UNL     1     146.890 130.510 131.576  0.00  0.00    +0.000 C 
ATOM     10  C   UNL     1     147.445 130.069 131.407  0.00  0.00    +0.000 C 
BRANCH  10  14
ATOM     11  C   UNL     1     149.408 130.407 132.325  0.00  0.00    +0.000 A 
ATOM     12  C   UNL     1     148.933 129.962 132.638  0.00  0.00    +0.000 A 
ATOM     13  C   UNL     1     149.234 130.750 131.696  0.00  0.00    +0.000 A 
ATOM     14  C   UNL     1     148.102 130.184 131.713  0.00  0.00    +0.000 A 
ATOM     15  C   UNL     1     148.274 129.844 132.336  0.00  0.00    +0.000 A 
ATOM     16  C   UNL     1     148.574 130.635 131.389  0.00  0.00    +0.000 A 
BRANCH  11  17
ATOM     17  O   UNL     1     150.070 130.528 132.624  0.00  0.00    +0.000 OA
ATOM     18  C   UNL     1     150.171 131.052 133.131  0.00  0.00    +0.000 C 
ENDBRANCH  11  17
BRANCH  12  19
ATOM     19  O   UNL     1     149.104 129.625 133.257  0.00  0.00    +0.000 OA
ATOM     20  C   UNL     1     148.816 128.957 133.411  0.00  0.00    +0.000 C 
ENDBRANCH  12  19
BRANCH  13  21
ATOM     21  O   UNL     1     149.716 131.203 131.375  0.00  0.00    +0.000 OA
ATOM     22  C   UNL     1     149.728 131.295 130.673  0.00  0.00    +0.000 C 
ENDBRANCH  13  21
ENDBRANCH  10  14
ENDBRANCH   2   9
BRANCH   3  23
ATOM     23  C   UNL     1     143.992 132.102 132.040  0.00  0.00    +0.000 C 
BRANCH  23  24
ATOM     24  C   UNL     1     143.695 132.549 131.578  0.00  0.00    +0.000 C 
ATOM     25  N   UNL     1     143.161 132.993 131.775  0.00  0.00    +0.000 N 
ATOM     26  O   UNL     1     143.939 132.562 130.878  0.00  0.00    +0.000 OA
ATOM     27  C   UNL     1     142.825 133.088 132.420  0.00  0.00    +0.000 C 
ATOM     28  C   UNL     1     142.857 133.450 131.301  0.00  0.00    +0.000 C 
ATOM     29  C   UNL     1     142.318 133.605 132.333  0.00  0.00    +0.000 C 
ATOM     30  C   UNL     1     142.329 133.835 131.647  0.00  0.00    +0.000 C 
ENDBRANCH  23  24
ENDBRANCH   3  23
TORSDOF 7
ENDMDL
MODEL 12
REMARK VINA RESULT:      -8.4     59.858     62.197
REMARK  Name = 
REMARK  7 active torsions:
REMARK  status: ('A' for Active; 'I' for Inactive)
REMARK    1  A    between atoms: C_1  and  C_10
REMARK    2  A    between atoms: C_3  and  C_8
REMARK    3  A    between atoms: C_4  and  O_21
REMARK    4  A    between atoms: C_6  and  O_22
REMARK    5  A    between atoms: C_7  and  O_23
REMARK    6  A    between atoms: N_9  and  C_10
REMARK    7  A    between atoms: C_11  and  C_12
REMARK                            x       y       z     vdW  Elec       q    Type
REMARK                         _______ _______ _______ _____ _____    ______ ____
ROOT
ATOM      1  N   UNL     1     117.874 147.505  98.901  0.00  0.00    +0.000 N 
ATOM      2  C   UNL     1     117.265 147.666  99.254  0.00  0.00    +0.000 C 
ATOM      3  N   UNL     1     119.116 147.175  98.183  0.00  0.00    +0.000 NA
ATOM      4  C   UNL     1     118.126 146.808  98.909  0.00  0.00    +0.000 C 
ATOM      5  C   UNL     1     118.266 148.021  98.524  0.00  0.00    +0.000 C 
ATOM      6  O   UNL     1     116.883 147.156  99.624  0.00  0.00    +0.000 OA
ATOM      7  C   UNL     1     118.707 146.630  98.579  0.00  0.00    +0.000 C 
ATOM      8  C   UNL     1     118.854 147.858  98.186  0.00  0.00    +0.000 C 
ENDROOT
BRANCH   2   9
ATOM      9  C   UNL     1     117.023 148.354  99.242  0.00  0.00    +0.000 C 
ATOM     10  C   UNL     1     116.405 148.520  99.592  0.00  0.00    +0.000 C 
BRANCH  10  14
ATOM     11  C   UNL     1     115.666 150.583  99.558  0.00  0.00    +0.000 A 
ATOM     12  C   UNL     1     115.487 150.126  99.029  0.00  0.00    +0.000 A 
ATOM     13  C   UNL     1     116.099 150.359 100.111  0.00  0.00    +0.000 A 
ATOM     14  C   UNL     1     116.159 149.210  99.582  0.00  0.00    +0.000 A 
ATOM     15  C   UNL     1     115.731 149.433  99.034  0.00  0.00    +0.000 A 
ATOM     16  C   UNL     1     116.346 149.665 100.120  0.00  0.00    +0.000 A 
BRANCH  11  17
ATOM     17  O   UNL     1     115.424 151.280  99.556  0.00  0.00    +0.000 OA
ATOM     18  C   UNL     1     115.765 151.803  99.167  0.00  0.00    +0.000 C 
ENDBRANCH  11  17
BRANCH  12  19
ATOM     19  O   UNL     1     115.062 150.346  98.485  0.00  0.00    +0.000 OA
ATOM     20  C   UNL     1     114.604 149.866  98.148  0.00  0.00    +0.000 C 
ENDBRANCH  12  19
BRANCH  13  21
ATOM     21  O   UNL     1     116.283 150.824 100.650  0.00  0.00    +0.000 OA
ATOM     22  C   UNL     1     116.386 150.600 101.314  0.00  0.00    +0.000 C 
ENDBRANCH  13  21
ENDBRANCH  10  14
ENDBRANCH   2   9
BRANCH   3  23
ATOM     23  C   UNL     1     119.732 147.011  97.827  0.00  0.00    +0.000 C 
BRANCH  23  24
ATOM     24  C   UNL     1     119.722 146.813  97.147  0.00  0.00    +0.000 C 
ATOM     25  N   UNL     1     120.314 146.560  96.821  0.00  0.00    +0.000 N 
ATOM     26  O   UNL     1     119.090 146.867  96.763  0.00  0.00    +0.000 OA
ATOM     27  C   UNL     1     120.996 146.454  97.072  0.00  0.00    +0.000 C 
ATOM     28  C   UNL     1     120.304 146.358  96.125  0.00  0.00    +0.000 C 
ATOM     29  C   UNL     1     121.395 146.186  96.523  0.00  0.00    +0.000 C 
ATOM     30  C   UNL     1     120.978 146.123  95.935  0.00  0.00    +0.000 C 
ENDBRANCH  23  24
ENDBRANCH   3  23
TORSDOF 7
ENDMDL
MODEL 13
REMARK VINA RESULT:      -8.3     62.023     63.920
REMARK  Name = 
REMARK  7 active torsions:
REMARK  status: ('A' for Active; 'I' for Inactive)
REMARK    1  A    between atoms: C_1  and  C_10
REMARK    2  A    between atoms: C_3  and  C_8
REMARK    3  A    between atoms: C_4  and  O_21
REMARK    4  A    between atoms: C_6  and  O_22
REMARK    5  A    between atoms: C_7  and  O_23
REMARK    6  A    between atoms: N_9  and  C_10
REMARK    7  A    between atoms: C_11  and  C_12
REMARK                            x       y       z     vdW  Elec       q    Type
REMARK                         _______ _______ _______ _____ _____    ______ ____
ROOT
ATOM      1  N   UNL     1     118.350 148.346  96.135  0.00  0.00    +0.000 N 
ATOM      2  C   UNL     1     117.778 148.736  95.933  0.00  0.00    +0.000 C 
ATOM      3  N   UNL     1     119.517 147.550  96.547  0.00  0.00    +0.000 NA
ATOM      4  C   UNL     1     118.930 148.285  95.678  0.00  0.00    +0.000 C 
ATOM      5  C   UNL     1     118.381 147.995  96.798  0.00  0.00    +0.000 C 
ATOM      6  O   UNL     1     117.751 149.079  95.281  0.00  0.00    +0.000 OA
ATOM      7  C   UNL     1     119.489 147.917  95.850  0.00  0.00    +0.000 C 
ATOM      8  C   UNL     1     118.937 147.620  96.986  0.00  0.00    +0.000 C 
ENDROOT
BRANCH   2   9
ATOM      9  C   UNL     1     117.210 148.792  96.388  0.00  0.00    +0.000 C 
ATOM     10  C   UNL     1     116.650 149.222  96.207  0.00  0.00    +0.000 C 
BRANCH  10  14
ATOM     11  C   UNL     1     114.937 149.392  97.565  0.00  0.00    +0.000 A 
ATOM     12  C   UNL     1     114.919 148.923  97.016  0.00  0.00    +0.000 A 
ATOM     13  C   UNL     1     115.532 149.814  97.672  0.00  0.00    +0.000 A 
ATOM     14  C   UNL     1     116.078 149.280  96.662  0.00  0.00    +0.000 A 
ATOM     15  C   UNL     1     115.490 148.861  96.557  0.00  0.00    +0.000 A 
ATOM     16  C   UNL     1     116.106 149.756  97.214  0.00  0.00    +0.000 A 
BRANCH  11  17
ATOM     17  O   UNL     1     114.367 149.457  98.028  0.00  0.00    +0.000 OA
ATOM     18  C   UNL     1     114.298 149.016  98.613  0.00  0.00    +0.000 C 
ENDBRANCH  11  17
BRANCH  12  19
ATOM     19  O   UNL     1     114.335 148.507  96.911  0.00  0.00    +0.000 OA
ATOM     20  C   UNL     1     114.119 148.331  96.222  0.00  0.00    +0.000 C 
ENDBRANCH  12  19
BRANCH  13  21
ATOM     21  O   UNL     1     115.552 150.291  98.230  0.00  0.00    +0.000 OA
ATOM     22  C   UNL     1     115.935 150.886  98.196  0.00  0.00    +0.000 C 
ENDBRANCH  13  21
ENDBRANCH  10  14
ENDBRANCH   2   9
BRANCH   3  23
ATOM     23  C   UNL     1     120.097 147.155  96.752  0.00  0.00    +0.000 C 
BRANCH  23  24
ATOM     24  C   UNL     1     120.150 146.468  96.586  0.00  0.00    +0.000 C 
ATOM     25  N   UNL     1     120.698 146.065  96.829  0.00  0.00    +0.000 N 
ATOM     26  O   UNL     1     119.634 146.158  96.154  0.00  0.00    +0.000 OA
ATOM     27  C   UNL     1     121.270 146.235  97.257  0.00  0.00    +0.000 C 
ATOM     28  C   UNL     1     120.753 145.363  96.659  0.00  0.00    +0.000 C 
ATOM     29  C   UNL     1     121.669 145.630  97.343  0.00  0.00    +0.000 C 
ATOM     30  C   UNL     1     121.359 145.087  96.979  0.00  0.00    +0.000 C 
ENDBRANCH  23  24
ENDBRANCH   3  23
TORSDOF 7
ENDMDL
MODEL 14
REMARK VINA RESULT:      -8.3     59.879     62.438
REMARK  Name = 
REMARK  7 active torsions:
REMARK  status: ('A' for Active; 'I' for Inactive)
REMARK    1  A    between atoms: C_1  and  C_10
REMARK    2  A    between atoms: C_3  and  C_8
REMARK    3  A    between atoms: C_4  and  O_21
REMARK    4  A    between atoms: C_6  and  O_22
REMARK    5  A    between atoms: C_7  and  O_23
REMARK    6  A    between atoms: N_9  and  C_10
REMARK    7  A    between atoms: C_11  and  C_12
REMARK                            x       y       z     vdW  Elec       q    Type
REMARK                         _______ _______ _______ _____ _____    ______ ____
ROOT
ATOM      1  N   UNL     1     118.244 148.512  97.542  0.00  0.00    +0.000 N 
ATOM      2  C   UNL     1     117.816 149.054  97.753  0.00  0.00    +0.000 C 
ATOM      3  N   UNL     1     119.118 147.409  97.113  0.00  0.00    +0.000 NA
ATOM      4  C   UNL     1     118.761 148.636  97.027  0.00  0.00    +0.000 C 
ATOM      5  C   UNL     1     118.185 147.821  97.829  0.00  0.00    +0.000 C 
ATOM      6  O   UNL     1     117.876 149.731  97.469  0.00  0.00    +0.000 OA
ATOM      7  C   UNL     1     119.184 148.133  96.810  0.00  0.00    +0.000 C 
ATOM      8  C   UNL     1     118.603 147.303  97.621  0.00  0.00    +0.000 C 
ENDROOT
BRANCH   2   9
ATOM      9  C   UNL     1     117.308 148.925  98.261  0.00  0.00    +0.000 C 
ATOM     10  C   UNL     1     116.831 149.449  98.428  0.00  0.00    +0.000 C 
BRANCH  10  14
ATOM     11  C   UNL     1     115.306 149.073  99.958  0.00  0.00    +0.000 A 
ATOM     12  C   UNL     1     115.914 149.422 100.131  0.00  0.00    +0.000 A 
ATOM     13  C   UNL     1     115.195 148.842  99.267  0.00  0.00    +0.000 A 
ATOM     14  C   UNL     1     116.319 149.323  98.939  0.00  0.00    +0.000 A 
ATOM     15  C   UNL     1     116.429 149.552  99.623  0.00  0.00    +0.000 A 
ATOM     16  C   UNL     1     115.709 148.970  98.755  0.00  0.00    +0.000 A 
BRANCH  11  17
ATOM     17  O   UNL     1     114.786 148.942 100.464  0.00  0.00    +0.000 OA
ATOM     18  C   UNL     1     114.799 148.331 100.875  0.00  0.00    +0.000 C 
ENDBRANCH  11  17
BRANCH  12  19
ATOM     19  O   UNL     1     116.023 149.650 100.811  0.00  0.00    +0.000 OA
ATOM     20  C   UNL     1     116.386 150.285 100.940  0.00  0.00    +0.000 C 
ENDBRANCH  12  19
BRANCH  13  21
ATOM     21  O   UNL     1     114.577 148.487  99.089  0.00  0.00    +0.000 OA
ATOM     22  C   UNL     1     114.304 148.521  98.437  0.00  0.00    +0.000 C 
ENDBRANCH  13  21
ENDBRANCH  10  14
ENDBRANCH   2   9
BRANCH   3  23
ATOM     23  C   UNL     1     119.552 146.861  96.900  0.00  0.00    +0.000 C 
BRANCH  23  24
ATOM     24  C   UNL     1     120.158 146.719  97.238  0.00  0.00    +0.000 C 
ATOM     25  N   UNL     1     120.562 146.148  97.061  0.00  0.00    +0.000 N 
ATOM     26  O   UNL     1     120.381 147.167  97.785  0.00  0.00    +0.000 OA
ATOM     27  C   UNL     1     120.467 145.628  96.551  0.00  0.00    +0.000 C 
ATOM     28  C   UNL     1     121.182 146.003  97.408  0.00  0.00    +0.000 C 
ATOM     29  C   UNL     1     121.034 145.170  96.593  0.00  0.00    +0.000 C 
ATOM     30  C   UNL     1     121.480 145.392  97.117  0.00  0.00    +0.000 C 
ENDBRANCH  23  24
ENDBRANCH   3  23
TORSDOF 7
ENDMDL
MODEL 15
REMARK VINA RESULT:      -8.3     54.743     57.085
REMARK  Name = 
REMARK  7 active torsions:
REMARK  status: ('A' for Active; 'I' for Inactive)
REMARK    1  A    between atoms: C_1  and  C_10
REMARK    2  A    between atoms: C_3  and  C_8
REMARK    3  A    between atoms: C_4  and  O_21
REMARK    4  A    between atoms: C_6  and  O_22
REMARK    5  A    between atoms: C_7  and  O_23
REMARK    6  A    between atoms: N_9  and  C_10
REMARK    7  A    between atoms: C_11  and  C_12
REMARK                            x       y       z     vdW  Elec       q    Type
REMARK                         _______ _______ _______ _____ _____    ______ ____
ROOT
ATOM      1  N   UNL     1      94.670 133.714 102.939  0.00  0.00    +0.000 N 
ATOM      2  C   UNL     1      94.758 134.423 102.837  0.00  0.00    +0.000 C 
ATOM      3  N   UNL     1      94.490 132.268 103.145  0.00  0.00    +0.000 NA
ATOM      4  C   UNL     1      94.457 133.288 102.371  0.00  0.00    +0.000 C 
ATOM      5  C   UNL     1      94.786 133.388 103.604  0.00  0.00    +0.000 C 
ATOM      6  O   UNL     1      94.642 134.740 102.181  0.00  0.00    +0.000 OA
ATOM      7  C   UNL     1      94.366 132.607 102.444  0.00  0.00    +0.000 C 
ATOM      8  C   UNL     1      94.699 132.702 103.695  0.00  0.00    +0.000 C 
ENDROOT
BRANCH   2   9
ATOM      9  C   UNL     1      94.967 134.837 103.400  0.00  0.00    +0.000 C 
ATOM     10  C   UNL     1      95.044 135.555 103.305  0.00  0.00    +0.000 C 
BRANCH  10  14
ATOM     11  C   UNL     1      95.680 136.806 104.990  0.00  0.00    +0.000 A 
ATOM     12  C   UNL     1      96.167 136.563 104.515  0.00  0.00    +0.000 A 
ATOM     13  C   UNL     1      94.967 136.635 104.910  0.00  0.00    +0.000 A 
ATOM     14  C   UNL     1      95.255 135.974 103.869  0.00  0.00    +0.000 A 
ATOM     15  C   UNL     1      95.961 136.143 103.948  0.00  0.00    +0.000 A 
ATOM     16  C   UNL     1      94.756 136.215 104.343  0.00  0.00    +0.000 A 
BRANCH  11  17
ATOM     17  O   UNL     1      95.882 137.227 105.560  0.00  0.00    +0.000 OA
ATOM     18  C   UNL     1      96.098 136.929 106.197  0.00  0.00    +0.000 C 
ENDBRANCH  11  17
BRANCH  12  19
ATOM     19  O   UNL     1      96.868 136.731 104.594  0.00  0.00    +0.000 OA
ATOM     20  C   UNL     1      97.301 136.821 103.996  0.00  0.00    +0.000 C 
ENDBRANCH  12  19
BRANCH  13  21
ATOM     21  O   UNL     1      94.470 136.882 105.391  0.00  0.00    +0.000 OA
ATOM     22  C   UNL     1      93.797 136.995 105.204  0.00  0.00    +0.000 C 
ENDBRANCH  13  21
ENDBRANCH  10  14
ENDBRANCH   2   9
BRANCH   3  23
ATOM     23  C   UNL     1      94.400 131.550 103.248  0.00  0.00    +0.000 C 
BRANCH  23  24
ATOM     24  C   UNL     1      93.814 131.293 103.551  0.00  0.00    +0.000 C 
ATOM     25  N   UNL     1      93.764 130.598 103.740  0.00  0.00    +0.000 N 
ATOM     26  O   UNL     1      93.241 131.746 103.676  0.00  0.00    +0.000 OA
ATOM     27  C   UNL     1      94.243 130.044 103.678  0.00  0.00    +0.000 C 
ATOM     28  C   UNL     1      93.164 130.334 104.050  0.00  0.00    +0.000 C 
ATOM     29  C   UNL     1      93.927 129.446 103.952  0.00  0.00    +0.000 C 
ATOM     30  C   UNL     1      93.263 129.614 104.184  0.00  0.00    +0.000 C 
ENDBRANCH  23  24
ENDBRANCH   3  23
TORSDOF 7
ENDMDL
MODEL 16
REMARK VINA RESULT:      -8.3     50.554     51.876
REMARK  Name = 
REMARK  7 active torsions:
REMARK  status: ('A' for Active; 'I' for Inactive)
REMARK    1  A    between atoms: C_1  and  C_10
REMARK    2  A    between atoms: C_3  and  C_8
REMARK    3  A    between atoms: C_4  and  O_21
REMARK    4  A    between atoms: C_6  and  O_22
REMARK    5  A    between atoms: C_7  and  O_23
REMARK    6  A    between atoms: N_9  and  C_10
REMARK    7  A    between atoms: C_11  and  C_12
REMARK                            x       y       z     vdW  Elec       q    Type
REMARK                         _______ _______ _______ _____ _____    ______ ____
ROOT
ATOM      1  N   UNL     1     149.003 129.898 133.425  0.00  0.00    +0.000 N 
ATOM      2  C   UNL     1     149.541 129.757 133.886  0.00  0.00    +0.000 C 
ATOM      3  N   UNL     1     147.906 130.183 132.487  0.00  0.00    +0.000 NA
ATOM      4  C   UNL     1     148.645 129.336 133.100  0.00  0.00    +0.000 C 
ATOM      5  C   UNL     1     148.789 130.598 133.261  0.00  0.00    +0.000 C 
ATOM      6  O   UNL     1     149.748 129.068 134.045  0.00  0.00    +0.000 OA
ATOM      7  C   UNL     1     148.127 129.446 132.656  0.00  0.00    +0.000 C 
ATOM      8  C   UNL     1     148.269 130.726 132.815  0.00  0.00    +0.000 C 
ENDROOT
BRANCH   2   9
ATOM      9  C   UNL     1     149.888 130.315 134.202  0.00  0.00    +0.000 C 
ATOM     10  C   UNL     1     150.457 130.179 134.638  0.00  0.00    +0.000 C 
BRANCH  10  14
ATOM     11  C   UNL     1     151.511 131.850 135.588  0.00  0.00    +0.000 A 
ATOM     12  C   UNL     1     151.679 131.653 134.915  0.00  0.00    +0.000 A 
ATOM     13  C   UNL     1     150.985 131.491 135.960  0.00  0.00    +0.000 A 
ATOM     14  C   UNL     1     150.808 130.738 134.958  0.00  0.00    +0.000 A 
ATOM     15  C   UNL     1     151.329 131.093 134.590  0.00  0.00    +0.000 A 
ATOM     16  C   UNL     1     150.632 130.930 135.638  0.00  0.00    +0.000 A 
BRANCH  11  17
ATOM     17  O   UNL     1     151.859 132.410 135.918  0.00  0.00    +0.000 OA
ATOM     18  C   UNL     1     151.625 133.104 135.840  0.00  0.00    +0.000 C 
ENDBRANCH  11  17
BRANCH  12  19
ATOM     19  O   UNL     1     152.196 132.005 134.550  0.00  0.00    +0.000 OA
ATOM     20  C   UNL     1     152.626 131.643 134.063  0.00  0.00    +0.000 C 
ENDBRANCH  12  19
BRANCH  13  21
ATOM     21  O   UNL     1     150.813 131.691 136.645  0.00  0.00    +0.000 OA
ATOM     22  C   UNL     1     150.610 131.217 137.130  0.00  0.00    +0.000 C 
ENDBRANCH  13  21
ENDBRANCH  10  14
ENDBRANCH   2   9
BRANCH   3  23
ATOM     23  C   UNL     1     147.361 130.324 132.020  0.00  0.00    +0.000 C 
BRANCH  23  24
ATOM     24  C   UNL     1     146.691 130.372 132.243  0.00  0.00    +0.000 C 
ATOM     25  N   UNL     1     146.147 130.466 131.777  0.00  0.00    +0.000 N 
ATOM     26  O   UNL     1     146.544 130.324 132.967  0.00  0.00    +0.000 OA
ATOM     27  C   UNL     1     146.143 130.530 131.046  0.00  0.00    +0.000 C 
ATOM     28  C   UNL     1     145.461 130.515 132.005  0.00  0.00    +0.000 C 
ATOM     29  C   UNL     1     145.450 130.617 130.835  0.00  0.00    +0.000 C 
ATOM     30  C   UNL     1     145.021 130.610 131.417  0.00  0.00    +0.000 C 
ENDBRANCH  23  24
ENDBRANCH   3  23
TORSDOF 7
ENDMDL
MODEL 17
REMARK VINA RESULT:      -8.2     73.204     74.922
REMARK  Name = 
REMARK  7 active torsions:
REMARK  status: ('A' for Active; 'I' for Inactive)
REMARK    1  A    between atoms: C_1  and  C_10
REMARK    2  A    between atoms: C_3  and  C_8
REMARK    3  A    between atoms: C_4  and  O_21
REMARK    4  A    between atoms: C_6  and  O_22
REMARK    5  A    between atoms: C_7  and  O_23
REMARK    6  A    between atoms: N_9  and  C_10
REMARK    7  A    between atoms: C_11  and  C_12
REMARK                            x       y       z     vdW  Elec       q    Type
REMARK                         _______ _______ _______ _____ _____    ______ ____
ROOT
ATOM      1  N   UNL     1     147.297 138.224  96.334  0.00  0.00    +0.000 N 
ATOM      2  C   UNL     1     147.811 138.588  96.688  0.00  0.00    +0.000 C 
ATOM      3  N   UNL     1     146.250 137.483  95.613  0.00  0.00    +0.000 NA
ATOM      4  C   UNL     1     147.069 138.467  95.673  0.00  0.00    +0.000 C 
ATOM      5  C   UNL     1     146.983 137.604  96.615  0.00  0.00    +0.000 C 
ATOM      6  O   UNL     1     148.118 139.198  96.409  0.00  0.00    +0.000 OA
ATOM      7  C   UNL     1     146.578 138.135  95.315  0.00  0.00    +0.000 C 
ATOM      8  C   UNL     1     146.487 137.258  96.267  0.00  0.00    +0.000 C 
ENDROOT
BRANCH   2   9
ATOM      9  C   UNL     1     148.031 138.344  97.339  0.00  0.00    +0.000 C 
ATOM     10  C   UNL     1     148.600 138.663  97.664  0.00  0.00    +0.000 C 
BRANCH  10  14
ATOM     11  C   UNL     1     149.272 137.932  99.619  0.00  0.00    +0.000 A 
ATOM     12  C   UNL     1     149.494 137.606  99.015  0.00  0.00    +0.000 A 
ATOM     13  C   UNL     1     148.820 138.513  99.582  0.00  0.00    +0.000 A 
ATOM     14  C   UNL     1     148.824 138.420  98.319  0.00  0.00    +0.000 A 
ATOM     15  C   UNL     1     149.273 137.845  98.356  0.00  0.00    +0.000 A 
ATOM     16  C   UNL     1     148.595 138.757  98.924  0.00  0.00    +0.000 A 
BRANCH  11  17
ATOM     17  O   UNL     1     149.492 137.695 100.282  0.00  0.00    +0.000 OA
ATOM     18  C   UNL     1     150.144 137.892 100.561  0.00  0.00    +0.000 C 
ENDBRANCH  11  17
BRANCH  12  19
ATOM     19  O   UNL     1     149.939 137.035  99.051  0.00  0.00    +0.000 OA
ATOM     20  C   UNL     1     150.100 136.644  98.439  0.00  0.00    +0.000 C 
ENDBRANCH  12  19
BRANCH  13  21
ATOM     21  O   UNL     1     148.593 138.847 100.196  0.00  0.00    +0.000 OA
ATOM     22  C   UNL     1     148.192 139.429 100.175  0.00  0.00    +0.000 C 
ENDBRANCH  13  21
ENDBRANCH  10  14
ENDBRANCH   2   9
BRANCH   3  23
ATOM     23  C   UNL     1     145.730 137.115  95.255  0.00  0.00    +0.000 C 
BRANCH  23  24
ATOM     24  C   UNL     1     145.045 137.271  95.341  0.00  0.00    +0.000 C 
ATOM     25  N   UNL     1     144.532 136.920  94.974  0.00  0.00    +0.000 N 
ATOM     26  O   UNL     1     144.851 137.805  95.817  0.00  0.00    +0.000 OA
ATOM     27  C   UNL     1     144.575 136.379  94.480  0.00  0.00    +0.000 C 
ATOM     28  C   UNL     1     143.830 137.079  95.063  0.00  0.00    +0.000 C 
ATOM     29  C   UNL     1     143.896 136.214  94.271  0.00  0.00    +0.000 C 
ATOM     30  C   UNL     1     143.429 136.639  94.624  0.00  0.00    +0.000 C 
ENDBRANCH  23  24
ENDBRANCH   3  23
TORSDOF 7
ENDMDL
MODEL 18
REMARK VINA RESULT:      -8.1     61.418     62.844
REMARK  Name = 
REMARK  7 active torsions:
REMARK  status: ('A' for Active; 'I' for Inactive)
REMARK    1  A    between atoms: C_1  and  C_10
REMARK    2  A    between atoms: C_3  and  C_8
REMARK    3  A    between atoms: C_4  and  O_21
REMARK    4  A    between atoms: C_6  and  O_22
REMARK    5  A    between atoms: C_7  and  O_23
REMARK    6  A    between atoms: N_9  and  C_10
REMARK    7  A    between atoms: C_11  and  C_12
REMARK                            x       y       z     vdW  Elec       q    Type
REMARK                         _______ _______ _______ _____ _____    ______ ____
ROOT
ATOM      1  N   UNL     1     155.964 138.751 121.908  0.00  0.00    +0.000 N 
ATOM      2  C   UNL     1     155.971 138.759 122.630  0.00  0.00    +0.000 C 
ATOM      3  N   UNL     1     155.949 138.735 120.437  0.00  0.00    +0.000 NA
ATOM      4  C   UNL     1     155.675 138.169 121.552  0.00  0.00    +0.000 C 
ATOM      5  C   UNL     1     156.241 139.316 121.499  0.00  0.00    +0.000 C 
ATOM      6  O   UNL     1     155.698 138.202 123.028  0.00  0.00    +0.000 OA
ATOM      7  C   UNL     1     155.657 138.139 120.862  0.00  0.00    +0.000 C 
ATOM      8  C   UNL     1     156.230 139.301 120.802  0.00  0.00    +0.000 C 
ENDROOT
BRANCH   2   9
ATOM      9  C   UNL     1     156.258 139.335 122.973  0.00  0.00    +0.000 C 
ATOM     10  C   UNL     1     156.244 139.358 123.702  0.00  0.00    +0.000 C 
BRANCH  10  14
ATOM     11  C   UNL     1     157.097 141.089 124.742  0.00  0.00    +0.000 A 
ATOM     12  C   UNL     1     156.409 141.101 124.524  0.00  0.00    +0.000 A 
ATOM     13  C   UNL     1     157.515 140.495 124.617  0.00  0.00    +0.000 A 
ATOM     14  C   UNL     1     156.531 139.936 124.050  0.00  0.00    +0.000 A 
ATOM     15  C   UNL     1     156.117 140.524 124.174  0.00  0.00    +0.000 A 
ATOM     16  C   UNL     1     157.227 139.915 124.267  0.00  0.00    +0.000 A 
BRANCH  11  17
ATOM     17  O   UNL     1     157.394 141.665 125.093  0.00  0.00    +0.000 OA
ATOM     18  C   UNL     1     157.692 142.226 124.722  0.00  0.00    +0.000 C 
ENDBRANCH  11  17
BRANCH  12  19
ATOM     19  O   UNL     1     155.998 141.685 124.647  0.00  0.00    +0.000 OA
ATOM     20  C   UNL     1     155.266 141.611 124.760  0.00  0.00    +0.000 C 
ENDBRANCH  12  19
BRANCH  13  21
ATOM     21  O   UNL     1     158.216 140.481 124.839  0.00  0.00    +0.000 OA
ATOM     22  C   UNL     1     158.520 139.885 125.069  0.00  0.00    +0.000 C 
ENDBRANCH  13  21
ENDBRANCH  10  14
ENDBRANCH   2   9
BRANCH   3  23
ATOM     23  C   UNL     1     155.941 138.726 119.706  0.00  0.00    +0.000 C 
BRANCH  23  24
ATOM     24  C   UNL     1     155.393 138.988 119.341  0.00  0.00    +0.000 C 
ATOM     25  N   UNL     1     155.397 139.005 118.619  0.00  0.00    +0.000 N 
ATOM     26  O   UNL     1     154.804 139.248 119.708  0.00  0.00    +0.000 OA
ATOM     27  C   UNL     1     155.901 138.786 118.133  0.00  0.00    +0.000 C 
ATOM     28  C   UNL     1     154.836 139.273 118.246  0.00  0.00    +0.000 C 
ATOM     29  C   UNL     1     155.641 138.924 117.466  0.00  0.00    +0.000 C 
ATOM     30  C   UNL     1     154.985 139.223 117.524  0.00  0.00    +0.000 C 
ENDBRANCH  23  24
ENDBRANCH   3  23
TORSDOF 7
ENDMDL
MODEL 19
REMARK VINA RESULT:      -8.0      1.863      2.520
REMARK  Name = 
REMARK  7 active torsions:
REMARK  status: ('A' for Active; 'I' for Inactive)
REMARK    1  A    between atoms: C_1  and  C_10
REMARK    2  A    between atoms: C_3  and  C_8
REMARK    3  A    between atoms: C_4  and  O_21
REMARK    4  A    between atoms: C_6  and  O_22
REMARK    5  A    between atoms: C_7  and  O_23
REMARK    6  A    between atoms: N_9  and  C_10
REMARK    7  A    between atoms: C_11  and  C_12
REMARK                            x       y       z     vdW  Elec       q    Type
REMARK                         _______ _______ _______ _____ _____    ______ ____
ROOT
ATOM      1  N   UNL     1     105.860 143.889 159.804  0.00  0.00    +0.000 N 
ATOM      2  C   UNL     1     106.002 143.913 160.512  0.00  0.00    +0.000 C 
ATOM      3  N   UNL     1     105.570 143.840 158.363  0.00  0.00    +0.000 NA
ATOM      4  C   UNL     1     105.572 144.483 159.470  0.00  0.00    +0.000 C 
ATOM      5  C   UNL     1     105.994 143.277 159.390  0.00  0.00    +0.000 C 
ATOM      6  O   UNL     1     105.869 144.515 160.915  0.00  0.00    +0.000 OA
ATOM      7  C   UNL     1     105.427 144.484 158.793  0.00  0.00    +0.000 C 
ATOM      8  C   UNL     1     105.853 143.261 158.708  0.00  0.00    +0.000 C 
ENDROOT
BRANCH   2   9
ATOM      9  C   UNL     1     106.286 143.323 160.835  0.00  0.00    +0.000 C 
ATOM     10  C   UNL     1     106.263 143.271 161.561  0.00  0.00    +0.000 C 
BRANCH  10  14
ATOM     11  C   UNL     1     107.109 141.499 162.538  0.00  0.00    +0.000 A 
ATOM     12  C   UNL     1     106.591 141.426 162.040  0.00  0.00    +0.000 A 
ATOM     13  C   UNL     1     107.355 142.169 162.720  0.00  0.00    +0.000 A 
ATOM     14  C   UNL     1     106.547 142.679 161.889  0.00  0.00    +0.000 A 
ATOM     15  C   UNL     1     106.303 142.015 161.709  0.00  0.00    +0.000 A 
ATOM     16  C   UNL     1     107.069 142.763 162.391  0.00  0.00    +0.000 A 
BRANCH  11  17
ATOM     17  O   UNL     1     107.400 140.911 162.873  0.00  0.00    +0.000 OA
ATOM     18  C   UNL     1     107.088 140.618 163.471  0.00  0.00    +0.000 C 
ENDBRANCH  11  17
BRANCH  12  19
ATOM     19  O   UNL     1     106.349 140.766 161.861  0.00  0.00    +0.000 OA
ATOM     20  C   UNL     1     106.141 140.620 161.162  0.00  0.00    +0.000 C 
ENDBRANCH  12  19
BRANCH  13  21
ATOM     21  O   UNL     1     107.882 142.246 163.226  0.00  0.00    +0.000 OA
ATOM     22  C   UNL     1     107.946 142.839 163.608  0.00  0.00    +0.000 C 
ENDBRANCH  13  21
ENDBRANCH  10  14
ENDBRANCH   2   9
BRANCH   3  23
ATOM     23  C   UNL     1     105.425 143.816 157.646  0.00  0.00    +0.000 C 
BRANCH  23  24
ATOM     24  C   UNL     1     105.763 144.238 157.189  0.00  0.00    +0.000 C 
ATOM     25  N   UNL     1     105.604 144.232 156.485  0.00  0.00    +0.000 N 
ATOM     26  O   UNL     1     106.290 144.695 157.439  0.00  0.00    +0.000 OA
ATOM     27  C   UNL     1     105.115 143.839 156.103  0.00  0.00    +0.000 C 
ATOM     28  C   UNL     1     105.950 144.664 156.017  0.00  0.00    +0.000 C 
ATOM     29  C   UNL     1     105.169 144.038 155.403  0.00  0.00    +0.000 C 
ATOM     30  C   UNL     1     105.680 144.545 155.339  0.00  0.00    +0.000 C 
ENDBRANCH  23  24
ENDBRANCH   3  23
TORSDOF 7
ENDMDL
MODEL 20
REMARK VINA RESULT:      -8.0     50.064     51.657
REMARK  Name = 
REMARK  7 active torsions:
REMARK  status: ('A' for Active; 'I' for Inactive)
REMARK    1  A    between atoms: C_1  and  C_10
REMARK    2  A    between atoms: C_3  and  C_8
REMARK    3  A    between atoms: C_4  and  O_21
REMARK    4  A    between atoms: C_6  and  O_22
REMARK    5  A    between atoms: C_7  and  O_23
REMARK    6  A    between atoms: N_9  and  C_10
REMARK    7  A    between atoms: C_11  and  C_12
REMARK                            x       y       z     vdW  Elec       q    Type
REMARK                         _______ _______ _______ _____ _____    ______ ____
ROOT
ATOM      1  N   UNL     1     146.969 130.723 132.041  0.00  0.00    +0.000 N 
ATOM      2  C   UNL     1     147.552 130.316 131.916  0.00  0.00    +0.000 C 
ATOM      3  N   UNL     1     145.780 131.551 132.296  0.00  0.00    +0.000 NA
ATOM      4  C   UNL     1     146.335 130.398 132.245  0.00  0.00    +0.000 C 
ATOM      5  C   UNL     1     146.980 131.470 131.971  0.00  0.00    +0.000 C 
ATOM      6  O   UNL     1     147.537 129.582 131.985  0.00  0.00    +0.000 OA
ATOM      7  C   UNL     1     145.763 130.767 132.370  0.00  0.00    +0.000 C 
ATOM      8  C   UNL     1     146.413 131.856 132.093  0.00  0.00    +0.000 C 
ENDROOT
BRANCH   2   9
ATOM      9  C   UNL     1     148.173 130.642 131.715  0.00  0.00    +0.000 C 
ATOM     10  C   UNL     1     148.764 130.235 131.588  0.00  0.00    +0.000 C 
BRANCH  10  14
ATOM     11  C   UNL     1     150.633 131.205 130.979  0.00  0.00    +0.000 A 
ATOM     12  C   UNL     1     150.173 130.960 130.479  0.00  0.00    +0.000 A 
ATOM     13  C   UNL     1     150.477 131.130 131.695  0.00  0.00    +0.000 A 
ATOM     14  C   UNL     1     149.390 130.560 131.386  0.00  0.00    +0.000 A 
ATOM     15  C   UNL     1     149.544 130.633 130.677  0.00  0.00    +0.000 A 
ATOM     16  C   UNL     1     149.848 130.804 131.898  0.00  0.00    +0.000 A 
BRANCH  11  17
ATOM     17  O   UNL     1     151.264 131.533 130.785  0.00  0.00    +0.000 OA
ATOM     18  C   UNL     1     151.294 132.256 130.653  0.00  0.00    +0.000 C 
ENDBRANCH  11  17
BRANCH  12  19
ATOM     19  O   UNL     1     150.327 131.033 129.775  0.00  0.00    +0.000 OA
ATOM     20  C   UNL     1     150.128 130.505 129.291  0.00  0.00    +0.000 C 
ENDBRANCH  12  19
BRANCH  13  21
ATOM     21  O   UNL     1     150.944 131.379 132.205  0.00  0.00    +0.000 OA
ATOM     22  C   UNL     1     150.986 131.082 132.846  0.00  0.00    +0.000 C 
ENDBRANCH  13  21
ENDBRANCH  10  14
ENDBRANCH   2   9
BRANCH   3  23
ATOM     23  C   UNL     1     145.189 131.963 132.422  0.00  0.00    +0.000 C 
BRANCH  23  24
ATOM     24  C   UNL     1     144.717 132.095 131.911  0.00  0.00    +0.000 C 
ATOM     25  N   UNL     1     144.147 132.522 132.029  0.00  0.00    +0.000 N 
ATOM     26  O   UNL     1     144.810 131.788 131.243  0.00  0.00    +0.000 OA
ATOM     27  C   UNL     1     143.931 132.886 132.628  0.00  0.00    +0.000 C 
ATOM     28  C   UNL     1     143.664 132.657 131.505  0.00  0.00    +0.000 C 
ATOM     29  C   UNL     1     143.316 133.241 132.463  0.00  0.00    +0.000 C 
ATOM     30  C   UNL     1     143.142 133.107 131.774  0.00  0.00    +0.000 C 
ENDBRANCH  23  24
ENDBRANCH   3  23
TORSDOF 7
ENDMDL
