REMARK  Name = 
REMARK  3 active torsions:
REMARK  status: ('A' for Active; 'I' for Inactive)
REMARK    1  A    between atoms: C_1  and  C_7
REMARK    2  A    between atoms: C_1  and  C_8
REMARK    3  A    between atoms: C_2  and  C_4
REMARK                            x       y       z     vdW  Elec       q    Type
REMARK                         _______ _______ _______ _____ _____    ______ ____
ROOT
ATOM      1  C   UNL     1      -0.446   0.908   0.000  0.00  0.00    +0.000 C 
ATOM      2  C   UNL     1       0.854   1.646   0.000  0.00  0.00    +0.000 C 
ATOM      3  C   UNL     1      -0.446   2.283   0.000  0.00  0.00    +0.000 C 
ENDROOT
BRANCH   1   4
ATOM      4  C   UNL     1       0.054  -0.154   0.000  0.00  0.00    +0.000 A 
ATOM      5  C   UNL     1      -0.588  -1.329   0.000  0.00  0.00    +0.000 A 
ATOM      6  C   UNL     1       1.354  -0.154   0.000  0.00  0.00    +0.000 A 
ATOM      7  C   UNL     1       0.092  -2.479   0.000  0.00  0.00    +0.000 A 
ATOM      8  C   UNL     1       2.087  -1.300   0.000  0.00  0.00    +0.000 A 
ATOM      9  C   UNL     1       1.425  -2.479   0.000  0.00  0.00    +0.000 A 
ENDBRANCH   1   4
BRANCH   1  10
ATOM     10  C   UNL     1      -1.663   0.900   0.000  0.00  0.00    +0.000 A 
ATOM     11  C   UNL     1      -2.337   2.046   0.000  0.00  0.00    +0.000 A 
ATOM     12  C   UNL     1      -2.321  -0.254   0.000  0.00  0.00    +0.000 A 
ATOM     13  C   UNL     1      -3.671   2.033   0.000  0.00  0.00    +0.000 A 
ATOM     14  C   UNL     1      -3.663  -0.263   0.000  0.00  0.00    +0.000 A 
ATOM     15  C   UNL     1      -4.346   0.883   0.000  0.00  0.00    +0.000 A 
ENDBRANCH   1  10
BRANCH   2  16
ATOM     16  C   UNL     1       2.192   1.358   0.000  0.00  0.00    +0.000 C 
ATOM     17  N   UNL     1       3.163   2.275   0.000  0.00  0.00    +0.000 NA
ATOM     18  N   UNL     1       2.779   0.158   0.000  0.00  0.00    +0.000 NA
ATOM     19  C   UNL     1       4.342   1.658   0.000  0.00  0.00    +0.000 C 
ATOM     20  C   UNL     1       4.100   0.358   0.000  0.00  0.00    +0.000 C 
ENDBRANCH   2  16
TORSDOF 3
