REMARK  Name = 
REMARK  7 active torsions:
REMARK  status: ('A' for Active; 'I' for Inactive)
REMARK    1  A    between atoms: C_1  and  C_10
REMARK    2  A    between atoms: C_2  and  O_7
REMARK    3  A    between atoms: C_4  and  O_11
REMARK    4  A    between atoms: O_7  and  C_8
REMARK    5  A    between atoms: O_11  and  C_13
REMARK    6  A    between atoms: N_12  and  C_16
REMARK    7  A    between atoms: C_13  and  C_16
REMARK                            x       y       z     vdW  Elec       q    Type
REMARK                         _______ _______ _______ _____ _____    ______ ____
ROOT
ATOM      1  C   UNL     1      -0.400  -0.217   0.000  0.00  0.00    +0.000 A 
ATOM      2  C   UNL     1      -2.296  -0.242   0.000  0.00  0.00    +0.000 A 
ATOM      3  C   UNL     1      -1.346   0.308   0.000  0.00  0.00    +0.000 A 
ATOM      4  C   UNL     1      -0.400  -1.317   0.000  0.00  0.00    +0.000 A 
ATOM      5  C   UNL     1      -2.283  -1.329   0.000  0.00  0.00    +0.000 A 
ATOM      6  C   UNL     1      -1.346  -1.854   0.000  0.00  0.00    +0.000 A 
ATOM      7  C   UNL     1      -3.221  -1.875   0.000  0.00  0.00    +0.000 C 
ENDROOT
BRANCH   1   8
ATOM      8  C   UNL     1       0.529   0.321   0.000  0.00  0.00    +0.000 C 
ATOM      9  C   UNL     1       0.525   1.396   0.000  0.00  0.00    +0.000 C 
ATOM     10  C   UNL     1       1.462  -0.212   0.000  0.00  0.00    +0.000 C 
ENDBRANCH   1   8
BRANCH   2  11
ATOM     11  O   UNL     1      -3.246   0.308   0.000  0.00  0.00    +0.000 OA
BRANCH  11  12
ATOM     12  C   UNL     1      -3.258   1.413   0.000  0.00  0.00    +0.000 C 
ATOM     13  O   UNL     1      -4.208   1.946   0.000  0.00  0.00    +0.000 OA
ATOM     14  C   UNL     1      -2.321   1.958   0.000  0.00  0.00    +0.000 C 
ENDBRANCH  11  12
ENDBRANCH   2  11
BRANCH   4  15
ATOM     15  O   UNL     1       0.579  -1.867   0.000  0.00  0.00    +0.000 OA
BRANCH  15  16
ATOM     16  C   UNL     1       1.517  -1.317   0.000  0.00  0.00    +0.000 C 
BRANCH  16  17
ATOM     17  C   UNL     1       2.454  -1.854   0.000  0.00  0.00    +0.000 C 
BRANCH  17  18
ATOM     18  N   UNL     1       3.404  -1.304   0.000  0.00  0.00    +0.000 NA
ATOM     19  C   UNL     1       3.392  -0.229   0.000  0.00  0.00    +0.000 C 
ATOM     20  C   UNL     1       4.342  -1.842   0.000  0.00  0.00    +0.000 C 
ENDBRANCH  17  18
ENDBRANCH  16  17
ENDBRANCH  15  16
ENDBRANCH   4  15
TORSDOF 7
