REMARK  Name = 
REMARK  11 active torsions:
REMARK  status: ('A' for Active; 'I' for Inactive)
REMARK    1  A    between atoms: S_1  and  N_4
REMARK    2  A    between atoms: S_2  and  N_3
REMARK    3  A    between atoms: N_3  and  C_10
REMARK    4  A    between atoms: N_4  and  C_9
REMARK    5  A    between atoms: N_11  and  C_16
REMARK    6  A    between atoms: N_11  and  C_28
REMARK    7  A    between atoms: C_14  and  C_17
REMARK    8  A    between atoms: C_15  and  O_26
REMARK    9  A    between atoms: C_16  and  C_17
REMARK   10  A    between atoms: O_26  and  C_27
REMARK   11  A    between atoms: C_27  and  C_28
REMARK                            x       y       z     vdW  Elec       q    Type
REMARK                         _______ _______ _______ _____ _____    ______ ____
ROOT
ATOM      1  N   UNL     1       2.167 -14.062   0.000  0.00  0.00    +0.000 NA
ATOM      2  C   UNL     1       2.167 -14.738   0.000  0.00  0.00    +0.000 C 
ENDROOT
BRANCH   1   3
ATOM      3  C   UNL     1       1.587 -13.738   0.000  0.00  0.00    +0.000 C 
BRANCH   3   4
ATOM      4  C   UNL     1       0.942 -14.092   0.000  0.00  0.00    +0.000 C 
BRANCH   4   6
ATOM      5  C   UNL     1      -0.887 -13.012   0.000  0.00  0.00    +0.000 A 
ATOM      6  C   UNL     1       0.362 -13.738   0.000  0.00  0.00    +0.000 A 
ATOM      7  C   UNL     1      -0.271 -12.637   0.000  0.00  0.00    +0.000 A 
ATOM      8  C   UNL     1      -0.887 -13.738   0.000  0.00  0.00    +0.000 A 
ATOM      9  C   UNL     1      -0.271 -14.092   0.000  0.00  0.00    +0.000 A 
ATOM     10  C   UNL     1       0.362 -13.012   0.000  0.00  0.00    +0.000 A 
BRANCH   5  11
ATOM     11  N   UNL     1      -1.508 -12.646   0.000  0.00  0.00    +0.000 NA
BRANCH  11  12
ATOM     12  S   UNL     1      -2.133 -13.012   0.000  0.00  0.00    +0.000 S 
ATOM     13  O   UNL     1      -1.783 -13.625   0.000  0.00  0.00    +0.000 OA
ATOM     14  O   UNL     1      -2.496 -13.625   0.000  0.00  0.00    +0.000 OA
ATOM     15  C   UNL     1      -2.758 -12.646   0.000  0.00  0.00    +0.000 C 
ENDBRANCH  11  12
ENDBRANCH   5  11
ENDBRANCH   4   6
ENDBRANCH   3   4
ENDBRANCH   1   3
BRANCH   1  16
ATOM     16  C   UNL     1       2.767 -13.738   0.000  0.00  0.00    +0.000 C 
BRANCH  16  17
ATOM     17  C   UNL     1       3.379 -14.062   0.000  0.00  0.00    +0.000 C 
BRANCH  17  18
ATOM     18  O   UNL     1       3.975 -13.738   0.000  0.00  0.00    +0.000 OA
BRANCH  18  20
ATOM     19  C   UNL     1       5.792 -14.792   0.000  0.00  0.00    +0.000 A 
ATOM     20  C   UNL     1       4.550 -14.075   0.000  0.00  0.00    +0.000 A 
ATOM     21  C   UNL     1       5.179 -15.175   0.000  0.00  0.00    +0.000 A 
ATOM     22  C   UNL     1       5.792 -14.075   0.000  0.00  0.00    +0.000 A 
ATOM     23  C   UNL     1       4.550 -14.792   0.000  0.00  0.00    +0.000 A 
ATOM     24  C   UNL     1       5.179 -13.713   0.000  0.00  0.00    +0.000 A 
BRANCH  19  25
ATOM     25  N   UNL     1       6.425 -15.150   0.000  0.00  0.00    +0.000 NA
BRANCH  25  26
ATOM     26  S   UNL     1       7.025 -14.792   0.000  0.00  0.00    +0.000 S 
ATOM     27  O   UNL     1       7.375 -14.179   0.000  0.00  0.00    +0.000 OA
ATOM     28  O   UNL     1       6.667 -14.179   0.000  0.00  0.00    +0.000 OA
ATOM     29  C   UNL     1       7.654 -15.150   0.000  0.00  0.00    +0.000 C 
ENDBRANCH  25  26
ENDBRANCH  19  25
ENDBRANCH  18  20
ENDBRANCH  17  18
ENDBRANCH  16  17
ENDBRANCH   1  16
TORSDOF 11
