REMARK  Name = 
REMARK  11 active torsions:
REMARK  status: ('A' for Active; 'I' for Inactive)
REMARK    1  A    between atoms: C_3  and  O_7
REMARK    2  A    between atoms: C_4  and  O_7
REMARK    3  A    between atoms: C_4  and  C_21
REMARK    4  A    between atoms: C_8  and  C_13
REMARK    5  A    between atoms: C_11  and  C_12
REMARK    6  A    between atoms: C_12  and  C_19
REMARK    7  A    between atoms: C_13  and  C_22
REMARK    8  A    between atoms: C_19  and  C_20
REMARK    9  A    between atoms: C_20  and  C_24
REMARK   10  A    between atoms: C_21  and  C_28
REMARK   11  A    between atoms: C_22  and  C_24
REMARK                            x       y       z     vdW  Elec       q    Type
REMARK                         _______ _______ _______ _____ _____    ______ ____
ROOT
ATOM      1  C   UNL     1       4.592  -8.838   0.000  0.00  0.00    +0.000 C 
ATOM      2  C   UNL     1       4.592  -8.113   0.000  0.00  0.00    +0.000 C 
ATOM      3  C   UNL     1       3.967  -7.754   0.000  0.00  0.00    +0.000 C 
ATOM      4  C   UNL     1       5.213  -9.192   0.000  0.00  0.00    +0.000 C 
ATOM      5  C   UNL     1       3.967  -9.192   0.000  0.00  0.00    +0.000 C 
ATOM      6  C   UNL     1       5.213  -7.754   0.000  0.00  0.00    +0.000 C 
ATOM      7  C   UNL     1       5.825  -8.838   0.000  0.00  0.00    +0.000 C 
ATOM      8  C   UNL     1       3.354  -8.113   0.000  0.00  0.00    +0.000 C 
ATOM      9  C   UNL     1       3.354  -8.838   0.000  0.00  0.00    +0.000 C 
ATOM     10  C   UNL     1       5.825  -8.113   0.000  0.00  0.00    +0.000 C 
ATOM     11  O   UNL     1       2.729  -9.192   0.000  0.00  0.00    +0.000 OA
ATOM     12  C   UNL     1       6.442  -7.754   0.000  0.00  0.00    +0.000 C 
ENDROOT
BRANCH   3  13
ATOM     13  O   UNL     1       3.967  -7.054   0.000  0.00  0.00    +0.000 OA
BRANCH  13  14
ATOM     14  C   UNL     1       3.362  -6.700   0.000  0.00  0.00    +0.000 C 
ATOM     15  O   UNL     1       3.362  -5.992   0.000  0.00  0.00    +0.000 OA
BRANCH  14  16
ATOM     16  C   UNL     1       2.754  -7.054   0.000  0.00  0.00    +0.000 C 
ATOM     17  C   UNL     1       2.754  -7.754   0.000  0.00  0.00    +0.000 C 
BRANCH  16  18
ATOM     18  C   UNL     1       2.142  -6.700   0.000  0.00  0.00    +0.000 C 
ATOM     19  C   UNL     1       1.542  -7.054   0.000  0.00  0.00    +0.000 C 
ENDBRANCH  16  18
ENDBRANCH  14  16
ENDBRANCH  13  14
ENDBRANCH   3  13
BRANCH   6  20
ATOM     20  C   UNL     1       5.217  -7.042   0.000  0.00  0.00    +0.000 C 
BRANCH  20  21
ATOM     21  C   UNL     1       5.817  -6.667   0.000  0.00  0.00    +0.000 C 
BRANCH  21  22
ATOM     22  C   UNL     1       5.817  -5.925   0.000  0.00  0.00    +0.000 C 
ATOM     23  O   UNL     1       6.362  -5.642   0.000  0.00  0.00    +0.000 OA
BRANCH  22  24
ATOM     24  C   UNL     1       5.204  -5.575   0.000  0.00  0.00    +0.000 C 
BRANCH  24  25
ATOM     25  C   UNL     1       5.204  -4.867   0.000  0.00  0.00    +0.000 C 
ATOM     26  O   UNL     1       5.800  -4.517   0.000  0.00  0.00    +0.000 OA
BRANCH  25  27
ATOM     27  C   UNL     1       4.604  -4.517   0.000  0.00  0.00    +0.000 C 
BRANCH  27  28
ATOM     28  C   UNL     1       3.992  -4.867   0.000  0.00  0.00    +0.000 C 
ATOM     29  O   UNL     1       3.379  -4.504   0.000  0.00  0.00    +0.000 OA
ATOM     30  O   UNL     1       3.992  -5.575   0.000  0.00  0.00    +0.000 OA
ENDBRANCH  27  28
ENDBRANCH  25  27
ENDBRANCH  24  25
ENDBRANCH  22  24
ENDBRANCH  21  22
ENDBRANCH  20  21
ENDBRANCH   6  20
TORSDOF 11
