REMARK  Name = 
REMARK  6 active torsions:
REMARK  status: ('A' for Active; 'I' for Inactive)
REMARK    1  A    between atoms: C_6  and  O_8
REMARK    2  A    between atoms: O_8  and  C_9
REMARK    3  A    between atoms: C_9  and  C_10
REMARK    4  A    between atoms: C_10  and  C_11
REMARK    5  A    between atoms: C_11  and  N_13
REMARK    6  A    between atoms: N_13  and  C_14
REMARK                            x       y       z     vdW  Elec       q    Type
REMARK                         _______ _______ _______ _____ _____    ______ ____
ROOT
ATOM      1  O   UNL     1      -5.967  -3.477   0.000  0.00  0.00    +0.000 OA
ENDROOT
BRANCH   1   7
ATOM      2  C   UNL     1      -7.396  -3.477   0.000  0.00  0.00    +0.000 A 
ATOM      3  C   UNL     1      -8.110  -3.889   0.000  0.00  0.00    +0.000 A 
ATOM      4  C   UNL     1      -8.110  -4.714   0.000  0.00  0.00    +0.000 A 
ATOM      5  C   UNL     1      -7.396  -5.127   0.000  0.00  0.00    +0.000 A 
ATOM      6  C   UNL     1      -6.681  -4.714   0.000  0.00  0.00    +0.000 A 
ATOM      7  C   UNL     1      -6.681  -3.889   0.000  0.00  0.00    +0.000 A 
ATOM      8  O   UNL     1      -8.825  -5.127   0.000  0.00  0.00    +0.000 OA
ENDBRANCH   1   7
BRANCH   1   9
ATOM      9  C   UNL     1      -5.252  -3.889   0.000  0.00  0.00    +0.000 C 
BRANCH   9  10
ATOM     10  C   UNL     1      -4.538  -3.477   0.000  0.00  0.00    +0.000 C 
ATOM     11  O   UNL     1      -4.538  -2.652   0.000  0.00  0.00    +0.000 OA
BRANCH  10  12
ATOM     12  C   UNL     1      -3.823  -3.889   0.000  0.00  0.00    +0.000 C 
BRANCH  12  13
ATOM     13  N   UNL     1      -3.109  -3.477   0.000  0.00  0.00    +0.000 NA
BRANCH  13  14
ATOM     14  C   UNL     1      -2.394  -3.889   0.000  0.00  0.00    +0.000 C 
ATOM     15  C   UNL     1      -1.680  -3.477   0.000  0.00  0.00    +0.000 C 
ATOM     16  C   UNL     1      -2.394  -4.714   0.000  0.00  0.00    +0.000 C 
ENDBRANCH  13  14
ENDBRANCH  12  13
ENDBRANCH  10  12
ENDBRANCH   9  10
ENDBRANCH   1   9
TORSDOF 6
