REMARK  Name = 
REMARK  5 active torsions:
REMARK  status: ('A' for Active; 'I' for Inactive)
REMARK    1  A    between atoms: C_2  and  C_12
REMARK    2  A    between atoms: C_4  and  C_10
REMARK    3  A    between atoms: C_4  and  C_11
REMARK    4  A    between atoms: N_6  and  N_14
REMARK    5  A    between atoms: N_14  and  C_18
REMARK                            x       y       z     vdW  Elec       q    Type
REMARK                         _______ _______ _______ _____ _____    ______ ____
ROOT
ATOM      1  C   UNL     1      -0.637  -0.287   0.000  0.00  0.00    +0.000 A 
ATOM      2  C   UNL     1      -0.208  -1.054   0.000  0.00  0.00    +0.000 A 
ATOM      3  C   UNL     1      -0.208   0.483   0.000  0.00  0.00    +0.000 A 
ATOM      4  C   UNL     1       1.137  -0.287   0.000  0.00  0.00    +0.000 A 
ATOM      5  C   UNL     1       0.704   0.483   0.000  0.00  0.00    +0.000 A 
ATOM      6  C   UNL     1       0.704  -1.054   0.000  0.00  0.00    +0.000 A 
ENDROOT
BRANCH   1   8
ATOM      7  N   UNL     1      -1.983   0.483   0.000  0.00  0.00    +0.000 NA
ATOM      8  C   UNL     1      -1.546  -0.287   0.000  0.00  0.00    +0.000 C 
ATOM      9  N   UNL     1      -2.896   0.483   0.000  0.00  0.00    +0.000 NA
ATOM     10  C   UNL     1      -3.321  -0.287   0.000  0.00  0.00    +0.000 C 
ATOM     11  C   UNL     1      -1.983  -1.054   0.000  0.00  0.00    +0.000 C 
ATOM     12  C   UNL     1      -2.896  -1.054   0.000  0.00  0.00    +0.000 C 
ATOM     13  O   UNL     1      -4.233  -0.287   0.000  0.00  0.00    +0.000 OA
ATOM     14  C   UNL     1      -1.333  -1.479   0.000  0.00  0.00    +0.000 C 
ENDBRANCH   1   8
BRANCH   4  15
ATOM     15  N   UNL     1       2.050  -0.287   0.000  0.00  0.00    +0.000 NA
BRANCH  15  17
ATOM     16  C   UNL     1       3.392   0.483   0.000  0.00  0.00    +0.000 C 
ATOM     17  N   UNL     1       2.504   0.483   0.000  0.00  0.00    +0.000 NA
BRANCH  16  19
ATOM     18  N   UNL     1       4.279  -1.054   0.000  0.00  0.00    +0.000 NA
ATOM     19  C   UNL     1       3.837  -0.287   0.000  0.00  0.00    +0.000 C 
ENDBRANCH  16  19
BRANCH  16  21
ATOM     20  N   UNL     1       4.279   2.021   0.000  0.00  0.00    +0.000 NA
ATOM     21  C   UNL     1       3.837   1.246   0.000  0.00  0.00    +0.000 C 
ENDBRANCH  16  21
ENDBRANCH  15  17
ENDBRANCH   4  15
TORSDOF 5
