REMARK  Name = 
REMARK  9 active torsions:
REMARK  status: ('A' for Active; 'I' for Inactive)
REMARK    1  A    between atoms: C_1  and  C_6
REMARK    2  A    between atoms: C_2  and  C_10
REMARK    3  A    between atoms: C_3  and  C_9
REMARK    4  A    between atoms: C_6  and  O_13
REMARK    5  A    between atoms: N_8  and  C_12
REMARK    6  A    between atoms: C_10  and  O_24
REMARK    7  A    between atoms: N_11  and  C_21
REMARK    8  A    between atoms: O_13  and  C_18
REMARK    9  A    between atoms: C_21  and  C_28
REMARK                            x       y       z     vdW  Elec       q    Type
REMARK                         _______ _______ _______ _____ _____    ______ ____
ROOT
ATOM      1  C   UNL     1      -0.946  -1.175   0.000  0.00  0.00    +0.000 C 
ATOM      2  C   UNL     1      -2.333  -1.167   0.000  0.00  0.00    +0.000 C 
ATOM      3  C   UNL     1      -1.633  -0.767   0.000  0.00  0.00    +0.000 C 
ATOM      4  C   UNL     1      -0.963  -1.954   0.000  0.00  0.00    +0.000 C 
ATOM      5  C   UNL     1      -2.333  -1.942   0.000  0.00  0.00    +0.000 C 
ATOM      6  N   UNL     1      -1.646  -2.350   0.000  0.00  0.00    +0.000 NA
ATOM      7  C   UNL     1      -3.008  -2.337   0.000  0.00  0.00    +0.000 C 
ATOM      8  C   UNL     1      -0.287  -2.354   0.000  0.00  0.00    +0.000 C 
ENDROOT
BRANCH   3   9
ATOM      9  C   UNL     1      -1.633   0.033   0.000  0.00  0.00    +0.000 A 
ATOM     10  C   UNL     1      -0.975   1.221   0.000  0.00  0.00    +0.000 A 
ATOM     11  C   UNL     1      -0.963   0.438   0.000  0.00  0.00    +0.000 A 
ATOM     12  C   UNL     1      -2.312   0.412   0.000  0.00  0.00    +0.000 A 
ATOM     13  C   UNL     1      -1.658   1.600   0.000  0.00  0.00    +0.000 A 
ATOM     14  C   UNL     1      -2.333   1.196   0.000  0.00  0.00    +0.000 A 
BRANCH  10  15
ATOM     15  N   UNL     1      -0.308   1.621   0.000  0.00  0.00    +0.000 N 
ATOM     16  O   UNL     1       0.375   1.246   0.000  0.00  0.00    +0.000 OA
ATOM     17  O   UNL     1      -0.321   2.408   0.000  0.00  0.00    +0.000 OA
ENDBRANCH  10  15
ENDBRANCH   3   9
BRANCH   1  18
ATOM     18  C   UNL     1      -0.271  -0.767   0.000  0.00  0.00    +0.000 C 
ATOM     19  O   UNL     1      -0.271   0.196   0.000  0.00  0.00    +0.000 OA
BRANCH  18  20
ATOM     20  O   UNL     1       0.442  -1.104   0.000  0.00  0.00    +0.000 OA
BRANCH  20  22
ATOM     21  N   UNL     1       2.129  -0.004   0.000  0.00  0.00    +0.000 NA
ATOM     22  C   UNL     1       1.004  -0.554   0.000  0.00  0.00    +0.000 C 
ATOM     23  C   UNL     1       1.742  -0.662   0.000  0.00  0.00    +0.000 C 
ATOM     24  C   UNL     1       0.892   0.258   0.000  0.00  0.00    +0.000 C 
ATOM     25  C   UNL     1       1.625   0.613   0.000  0.00  0.00    +0.000 C 
BRANCH  21  26
ATOM     26  C   UNL     1       2.917   0.050   0.000  0.00  0.00    +0.000 C 
BRANCH  26  27
ATOM     27  C   UNL     1       3.237  -0.667   0.000  0.00  0.00    +0.000 A 
ATOM     28  C   UNL     1       4.025  -0.754   0.000  0.00  0.00    +0.000 A 
ATOM     29  C   UNL     1       2.767  -1.312   0.000  0.00  0.00    +0.000 A 
ATOM     30  C   UNL     1       4.342  -1.479   0.000  0.00  0.00    +0.000 A 
ATOM     31  C   UNL     1       3.087  -2.029   0.000  0.00  0.00    +0.000 A 
ATOM     32  C   UNL     1       3.879  -2.117   0.000  0.00  0.00    +0.000 A 
ENDBRANCH  26  27
ENDBRANCH  21  26
ENDBRANCH  20  22
ENDBRANCH  18  20
ENDBRANCH   1  18
BRANCH   2  33
ATOM     33  C   UNL     1      -3.021  -0.767   0.000  0.00  0.00    +0.000 C 
ATOM     34  O   UNL     1      -2.987   0.013   0.000  0.00  0.00    +0.000 OA
BRANCH  33  35
ATOM     35  O   UNL     1      -3.721  -1.137   0.000  0.00  0.00    +0.000 OA
ATOM     36  C   UNL     1      -4.346  -0.654   0.000  0.00  0.00    +0.000 C 
ENDBRANCH  33  35
ENDBRANCH   2  33
TORSDOF 9
