REMARK  Name = 
REMARK  14 active torsions:
REMARK  status: ('A' for Active; 'I' for Inactive)
REMARK    1  A    between atoms: C_1  and  C_21
REMARK    2  A    between atoms: C_3  and  C_17
REMARK    3  A    between atoms: C_4  and  C_20
REMARK    4  A    between atoms: C_5  and  C_19
REMARK    5  A    between atoms: C_6  and  C_20
REMARK    6  A    between atoms: C_7  and  C_16
REMARK    7  A    between atoms: C_8  and  C_17
REMARK    8  A    between atoms: C_9  and  C_16
REMARK    9  A    between atoms: C_10  and  C_19
REMARK   10  A    between atoms: C_11  and  C_18
REMARK   11  A    between atoms: C_12  and  C_18
REMARK   12  A    between atoms: C_13  and  C_23
REMARK   13  A    between atoms: C_14  and  C_22
REMARK   14  A    between atoms: C_21  and  C_22
REMARK                            x       y       z     vdW  Elec       q    Type
REMARK                         _______ _______ _______ _____ _____    ______ ____
ROOT
ATOM      1  C   UNL     1       0.317  -0.179   0.000  0.00  0.00    +0.000 C 
ATOM      2  C   UNL     1      -0.296  -0.179   0.000  0.00  0.00    +0.000 C 
ENDROOT
BRANCH   1   3
ATOM      3  C   UNL     1       0.588   0.371   0.000  0.00  0.00    +0.000 C 
BRANCH   3   4
ATOM      4  C   UNL     1       0.887  -0.154   0.000  0.00  0.00    +0.000 C 
ATOM      5  C   UNL     1       1.500  -0.154   0.000  0.00  0.00    +0.000 C 
BRANCH   5   6
ATOM      6  C   UNL     1       1.750   0.371   0.000  0.00  0.00    +0.000 C 
BRANCH   6   7
ATOM      7  C   UNL     1       2.050  -0.154   0.000  0.00  0.00    +0.000 C 
ATOM      8  C   UNL     1       2.679  -0.154   0.000  0.00  0.00    +0.000 C 
BRANCH   8   9
ATOM      9  C   UNL     1       2.954   0.325   0.000  0.00  0.00    +0.000 C 
BRANCH   9  10
ATOM     10  C   UNL     1       3.254  -0.154   0.000  0.00  0.00    +0.000 C 
BRANCH  10  11
ATOM     11  C   UNL     1       3.829  -0.154   0.000  0.00  0.00    +0.000 C 
ATOM     12  O   UNL     1       4.300  -0.275   0.000  0.00  0.00    +0.000 OA
ATOM     13  O   UNL     1       3.979   0.283   0.000  0.00  0.00    +0.000 OA
ENDBRANCH  10  11
ENDBRANCH   9  10
ENDBRANCH   8   9
ENDBRANCH   6   7
ENDBRANCH   5   6
ENDBRANCH   3   4
ENDBRANCH   1   3
BRANCH   2  14
ATOM     14  C   UNL     1      -0.521   0.388   0.000  0.00  0.00    +0.000 C 
BRANCH  14  15
ATOM     15  C   UNL     1      -0.821  -0.200   0.000  0.00  0.00    +0.000 C 
ATOM     16  C   UNL     1      -1.383  -0.200   0.000  0.00  0.00    +0.000 C 
BRANCH  16  17
ATOM     17  C   UNL     1      -1.633   0.346   0.000  0.00  0.00    +0.000 C 
BRANCH  17  18
ATOM     18  C   UNL     1      -1.908  -0.242   0.000  0.00  0.00    +0.000 C 
ATOM     19  C   UNL     1      -2.513  -0.242   0.000  0.00  0.00    +0.000 C 
BRANCH  19  20
ATOM     20  C   UNL     1      -2.796   0.308   0.000  0.00  0.00    +0.000 C 
BRANCH  20  21
ATOM     21  C   UNL     1      -3.096  -0.292   0.000  0.00  0.00    +0.000 C 
ATOM     22  C   UNL     1      -3.725  -0.279   0.000  0.00  0.00    +0.000 C 
BRANCH  22  23
ATOM     23  C   UNL     1      -3.996   0.263   0.000  0.00  0.00    +0.000 C 
ATOM     24  C   UNL     1      -4.346  -0.292   0.000  0.00  0.00    +0.000 C 
ENDBRANCH  22  23
ENDBRANCH  20  21
ENDBRANCH  19  20
ENDBRANCH  17  18
ENDBRANCH  16  17
ENDBRANCH  14  15
ENDBRANCH   2  14
TORSDOF 14
