MODEL 1
REMARK VINA RESULT:      -8.8      0.000      0.000
REMARK  Name = 
REMARK  11 active torsions:
REMARK  status: ('A' for Active; 'I' for Inactive)
REMARK    1  A    between atoms: C_1  and  C_3
REMARK    2  A    between atoms: C_1  and  O_10
REMARK    3  A    between atoms: C_2  and  C_4
REMARK    4  A    between atoms: C_3  and  C_4
REMARK    5  A    between atoms: C_3  and  C_6
REMARK    6  A    between atoms: C_6  and  C_11
REMARK    7  A    between atoms: O_10  and  C_14
REMARK    8  A    between atoms: N_12  and  C_17
REMARK    9  A    between atoms: N_12  and  C_20
REMARK   10  A    between atoms: N_12  and  C_21
REMARK   11  A    between atoms: C_14  and  C_17
REMARK                            x       y       z     vdW  Elec       q    Type
REMARK                         _______ _______ _______ _____ _____    ______ ____
ROOT
ATOM      1  C   UNL     1     160.157 122.878 165.545  0.00  0.00    +0.000 C 
ENDROOT
BRANCH   1   2
ATOM      2  C   UNL     1     160.556 122.908 166.150  0.00  0.00    +0.000 C 
ATOM      3  O   UNL     1     160.648 123.537 166.455  0.00  0.00    +0.000 OA
BRANCH   2   4
ATOM      4  O   UNL     1     160.827 122.314 166.397  0.00  0.00    +0.000 OA
BRANCH   4   5
ATOM      5  C   UNL     1     161.164 122.323 167.039  0.00  0.00    +0.000 C 
BRANCH   5   6
ATOM      6  C   UNL     1     161.522 121.754 167.259  0.00  0.00    +0.000 C 
BRANCH   6   7
ATOM      7  N   UNL     1     161.753 121.714 167.947  0.00  0.00    +0.000 NA
BRANCH   7   8
ATOM      8  C   UNL     1     161.379 121.332 168.414  0.00  0.00    +0.000 C 
ATOM      9  C   UNL     1     161.555 120.641 168.543  0.00  0.00    +0.000 C 
ENDBRANCH   7   8
BRANCH   7  10
ATOM     10  C   UNL     1     162.349 122.060 168.131  0.00  0.00    +0.000 C 
ATOM     11  C   UNL     1     162.582 122.052 168.819  0.00  0.00    +0.000 C 
ENDBRANCH   7  10
ENDBRANCH   6   7
ENDBRANCH   5   6
ENDBRANCH   4   5
ENDBRANCH   2   4
ENDBRANCH   1   2
BRANCH   1  12
ATOM     12  C   UNL     1     159.489 123.126 165.537  0.00  0.00    +0.000 C 
BRANCH  12  13
ATOM     13  C   UNL     1     158.916 122.676 165.561  0.00  0.00    +0.000 A 
ATOM     14  C   UNL     1     158.229 122.956 165.664  0.00  0.00    +0.000 A 
ATOM     15  C   UNL     1     157.649 122.501 165.690  0.00  0.00    +0.000 A 
ATOM     16  C   UNL     1     159.017 121.942 165.485  0.00  0.00    +0.000 A 
ATOM     17  C   UNL     1     158.437 121.487 165.510  0.00  0.00    +0.000 A 
ATOM     18  C   UNL     1     158.131 123.687 165.741  0.00  0.00    +0.000 A 
ATOM     19  C   UNL     1     157.756 121.766 165.612  0.00  0.00    +0.000 A 
ATOM     20  C   UNL     1     156.971 122.777 165.791  0.00  0.00    +0.000 A 
ATOM     21  C   UNL     1     157.447 123.963 165.843  0.00  0.00    +0.000 A 
ATOM     22  C   UNL     1     156.867 123.508 165.868  0.00  0.00    +0.000 A 
ENDBRANCH  12  13
ENDBRANCH   1  12
BRANCH   1  23
ATOM     23  C   UNL     1     160.432 122.592 164.939  0.00  0.00    +0.000 C 
BRANCH  23  25
ATOM     24  O   UNL     1     160.822 123.757 164.479  0.00  0.00    +0.000 OA
ATOM     25  C   UNL     1     160.807 123.014 164.486  0.00  0.00    +0.000 C 
ATOM     26  C   UNL     1     161.264 123.962 163.940  0.00  0.00    +0.000 C 
ATOM     27  C   UNL     1     161.232 122.779 163.962  0.00  0.00    +0.000 C 
ATOM     28  C   UNL     1     161.517 123.349 163.622  0.00  0.00    +0.000 C 
ENDBRANCH  23  25
ENDBRANCH   1  23
TORSDOF 11
ENDMDL
MODEL 2
REMARK VINA RESULT:      -8.8      1.170      2.911
REMARK  Name = 
REMARK  11 active torsions:
REMARK  status: ('A' for Active; 'I' for Inactive)
REMARK    1  A    between atoms: C_1  and  C_3
REMARK    2  A    between atoms: C_1  and  O_10
REMARK    3  A    between atoms: C_2  and  C_4
REMARK    4  A    between atoms: C_3  and  C_4
REMARK    5  A    between atoms: C_3  and  C_6
REMARK    6  A    between atoms: C_6  and  C_11
REMARK    7  A    between atoms: O_10  and  C_14
REMARK    8  A    between atoms: N_12  and  C_17
REMARK    9  A    between atoms: N_12  and  C_20
REMARK   10  A    between atoms: N_12  and  C_21
REMARK   11  A    between atoms: C_14  and  C_17
REMARK                            x       y       z     vdW  Elec       q    Type
REMARK                         _______ _______ _______ _____ _____    ______ ____
ROOT
ATOM      1  C   UNL     1     159.940 121.870 166.176  0.00  0.00    +0.000 C 
ENDROOT
BRANCH   1   2
ATOM      2  C   UNL     1     160.464 121.955 165.683  0.00  0.00    +0.000 C 
ATOM      3  O   UNL     1     160.683 121.386 165.330  0.00  0.00    +0.000 OA
BRANCH   2   4
ATOM      4  O   UNL     1     160.724 122.596 165.584  0.00  0.00    +0.000 OA
BRANCH   4   5
ATOM      5  C   UNL     1     161.220 122.696 165.065  0.00  0.00    +0.000 C 
BRANCH   5   6
ATOM      6  C   UNL     1     161.464 123.347 164.930  0.00  0.00    +0.000 C 
BRANCH   6   7
ATOM      7  N   UNL     1     161.971 123.446 164.420  0.00  0.00    +0.000 NA
BRANCH   7   8
ATOM      8  C   UNL     1     161.768 123.621 163.763  0.00  0.00    +0.000 C 
ATOM      9  C   UNL     1     161.566 124.301 163.614  0.00  0.00    +0.000 C 
ENDBRANCH   7   8
BRANCH   7  10
ATOM     10  C   UNL     1     162.658 123.363 164.595  0.00  0.00    +0.000 C 
ATOM     11  C   UNL     1     163.182 123.534 164.122  0.00  0.00    +0.000 C 
ENDBRANCH   7  10
ENDBRANCH   6   7
ENDBRANCH   5   6
ENDBRANCH   4   5
ENDBRANCH   2   4
ENDBRANCH   1   2
BRANCH   1  12
ATOM     12  C   UNL     1     159.380 122.309 166.192  0.00  0.00    +0.000 C 
BRANCH  12  13
ATOM     13  C   UNL     1     158.737 122.116 165.907  0.00  0.00    +0.000 A 
ATOM     14  C   UNL     1     158.168 122.603 165.910  0.00  0.00    +0.000 A 
ATOM     15  C   UNL     1     157.518 122.408 165.622  0.00  0.00    +0.000 A 
ATOM     16  C   UNL     1     158.649 121.436 165.616  0.00  0.00    +0.000 A 
ATOM     17  C   UNL     1     157.999 121.241 165.327  0.00  0.00    +0.000 A 
ATOM     18  C   UNL     1     158.257 123.280 166.201  0.00  0.00    +0.000 A 
ATOM     19  C   UNL     1     157.436 121.726 165.331  0.00  0.00    +0.000 A 
ATOM     20  C   UNL     1     156.957 122.889 165.625  0.00  0.00    +0.000 A 
ATOM     21  C   UNL     1     157.690 123.763 166.203  0.00  0.00    +0.000 A 
ATOM     22  C   UNL     1     157.040 123.568 165.914  0.00  0.00    +0.000 A 
ENDBRANCH  12  13
ENDBRANCH   1  12
BRANCH   1  23
ATOM     23  C   UNL     1     159.977 121.334 166.662  0.00  0.00    +0.000 C 
BRANCH  23  25
ATOM     24  O   UNL     1     160.237 121.948 167.792  0.00  0.00    +0.000 OA
ATOM     25  C   UNL     1     160.357 121.431 167.270  0.00  0.00    +0.000 C 
ATOM     26  C   UNL     1     160.740 121.857 168.309  0.00  0.00    +0.000 C 
ATOM     27  C   UNL     1     160.920 121.039 167.472  0.00  0.00    +0.000 C 
ATOM     28  C   UNL     1     161.161 121.290 168.105  0.00  0.00    +0.000 C 
ENDBRANCH  23  25
ENDBRANCH   1  23
TORSDOF 11
ENDMDL
MODEL 3
REMARK VINA RESULT:      -8.7      1.803      3.231
REMARK  Name = 
REMARK  11 active torsions:
REMARK  status: ('A' for Active; 'I' for Inactive)
REMARK    1  A    between atoms: C_1  and  C_3
REMARK    2  A    between atoms: C_1  and  O_10
REMARK    3  A    between atoms: C_2  and  C_4
REMARK    4  A    between atoms: C_3  and  C_4
REMARK    5  A    between atoms: C_3  and  C_6
REMARK    6  A    between atoms: C_6  and  C_11
REMARK    7  A    between atoms: O_10  and  C_14
REMARK    8  A    between atoms: N_12  and  C_17
REMARK    9  A    between atoms: N_12  and  C_20
REMARK   10  A    between atoms: N_12  and  C_21
REMARK   11  A    between atoms: C_14  and  C_17
REMARK                            x       y       z     vdW  Elec       q    Type
REMARK                         _______ _______ _______ _____ _____    ______ ____
ROOT
ATOM      1  C   UNL     1     159.792 121.918 165.595  0.00  0.00    +0.000 C 
ENDROOT
BRANCH   1   2
ATOM      2  C   UNL     1     160.121 121.823 164.956  0.00  0.00    +0.000 C 
ATOM      3  O   UNL     1     160.392 122.389 164.635  0.00  0.00    +0.000 OA
BRANCH   2   4
ATOM      4  O   UNL     1     160.152 121.177 164.692  0.00  0.00    +0.000 OA
BRANCH   4   5
ATOM      5  C   UNL     1     160.412 121.085 164.022  0.00  0.00    +0.000 C 
BRANCH   5   6
ATOM      6  C   UNL     1     160.597 120.439 163.800  0.00  0.00    +0.000 C 
BRANCH   6   7
ATOM      7  N   UNL     1     160.676 120.308 163.090  0.00  0.00    +0.000 NA
BRANCH   7   8
ATOM      8  C   UNL     1     161.326 120.324 162.806  0.00  0.00    +0.000 C 
ATOM      9  C   UNL     1     161.750 119.737 162.836  0.00  0.00    +0.000 C 
ENDBRANCH   7   8
BRANCH   7  10
ATOM     10  C   UNL     1     160.095 120.166 162.699  0.00  0.00    +0.000 C 
ATOM     11  C   UNL     1     160.156 119.828 162.059  0.00  0.00    +0.000 C 
ENDBRANCH   7  10
ENDBRANCH   6   7
ENDBRANCH   5   6
ENDBRANCH   4   5
ENDBRANCH   2   4
ENDBRANCH   1   2
BRANCH   1  12
ATOM     12  C   UNL     1     159.331 122.452 165.692  0.00  0.00    +0.000 C 
BRANCH  12  13
ATOM     13  C   UNL     1     158.611 122.343 165.658  0.00  0.00    +0.000 A 
ATOM     14  C   UNL     1     158.143 122.918 165.763  0.00  0.00    +0.000 A 
ATOM     15  C   UNL     1     157.415 122.808 165.729  0.00  0.00    +0.000 A 
ATOM     16  C   UNL     1     158.345 121.661 165.520  0.00  0.00    +0.000 A 
ATOM     17  C   UNL     1     157.616 121.551 165.486  0.00  0.00    +0.000 A 
ATOM     18  C   UNL     1     158.410 123.596 165.901  0.00  0.00    +0.000 A 
ATOM     19  C   UNL     1     157.154 122.123 165.590  0.00  0.00    +0.000 A 
ATOM     20  C   UNL     1     156.953 123.376 165.833  0.00  0.00    +0.000 A 
ATOM     21  C   UNL     1     157.943 124.167 166.005  0.00  0.00    +0.000 A 
ATOM     22  C   UNL     1     157.214 124.057 165.971  0.00  0.00    +0.000 A 
ENDBRANCH  12  13
ENDBRANCH   1  12
BRANCH   1  23
ATOM     23  C   UNL     1     159.928 121.468 166.146  0.00  0.00    +0.000 C 
BRANCH  23  25
ATOM     24  O   UNL     1     160.948 122.180 166.561  0.00  0.00    +0.000 OA
ATOM     25  C   UNL     1     160.443 121.637 166.624  0.00  0.00    +0.000 C 
ATOM     26  C   UNL     1     161.362 122.164 167.159  0.00  0.00    +0.000 C 
ATOM     27  C   UNL     1     160.553 121.304 167.247  0.00  0.00    +0.000 C 
ATOM     28  C   UNL     1     161.111 121.617 167.582  0.00  0.00    +0.000 C 
ENDBRANCH  23  25
ENDBRANCH   1  23
TORSDOF 11
ENDMDL
MODEL 4
REMARK VINA RESULT:      -8.4      1.446      2.774
REMARK  Name = 
REMARK  11 active torsions:
REMARK  status: ('A' for Active; 'I' for Inactive)
REMARK    1  A    between atoms: C_1  and  C_3
REMARK    2  A    between atoms: C_1  and  O_10
REMARK    3  A    between atoms: C_2  and  C_4
REMARK    4  A    between atoms: C_3  and  C_4
REMARK    5  A    between atoms: C_3  and  C_6
REMARK    6  A    between atoms: C_6  and  C_11
REMARK    7  A    between atoms: O_10  and  C_14
REMARK    8  A    between atoms: N_12  and  C_17
REMARK    9  A    between atoms: N_12  and  C_20
REMARK   10  A    between atoms: N_12  and  C_21
REMARK   11  A    between atoms: C_14  and  C_17
REMARK                            x       y       z     vdW  Elec       q    Type
REMARK                         _______ _______ _______ _____ _____    ______ ____
ROOT
ATOM      1  C   UNL     1     158.969 121.801 165.831  0.00  0.00    +0.000 C 
ENDROOT
BRANCH   1   2
ATOM      2  C   UNL     1     159.271 121.689 166.481  0.00  0.00    +0.000 C 
ATOM      3  O   UNL     1     158.859 121.452 167.002  0.00  0.00    +0.000 OA
BRANCH   2   4
ATOM      4  O   UNL     1     159.953 121.822 166.556  0.00  0.00    +0.000 OA
BRANCH   4   5
ATOM      5  C   UNL     1     160.287 121.605 167.162  0.00  0.00    +0.000 C 
BRANCH   5   6
ATOM      6  C   UNL     1     160.960 121.788 167.280  0.00  0.00    +0.000 C 
BRANCH   6   7
ATOM      7  N   UNL     1     161.351 121.434 167.778  0.00  0.00    +0.000 NA
BRANCH   7   8
ATOM      8  C   UNL     1     161.780 120.908 167.571  0.00  0.00    +0.000 C 
ATOM      9  C   UNL     1     162.446 121.058 167.325  0.00  0.00    +0.000 C 
ENDBRANCH   7   8
BRANCH   7  10
ATOM     10  C   UNL     1     161.292 121.625 168.463  0.00  0.00    +0.000 C 
ATOM     11  C   UNL     1     161.749 121.361 168.961  0.00  0.00    +0.000 C 
ENDBRANCH   7  10
ENDBRANCH   6   7
ENDBRANCH   5   6
ENDBRANCH   4   5
ENDBRANCH   2   4
ENDBRANCH   1   2
BRANCH   1  12
ATOM     12  C   UNL     1     159.318 121.632 165.234  0.00  0.00    +0.000 C 
BRANCH  12  13
ATOM     13  C   UNL     1     159.162 121.025 164.862  0.00  0.00    +0.000 A 
ATOM     14  C   UNL     1     159.564 120.847 164.256  0.00  0.00    +0.000 A 
ATOM     15  C   UNL     1     159.405 120.233 163.879  0.00  0.00    +0.000 A 
ATOM     16  C   UNL     1     158.604 120.585 165.087  0.00  0.00    +0.000 A 
ATOM     17  C   UNL     1     158.446 119.970 164.710  0.00  0.00    +0.000 A 
ATOM     18  C   UNL     1     160.118 121.286 164.034  0.00  0.00    +0.000 A 
ATOM     19  C   UNL     1     158.846 119.796 164.109  0.00  0.00    +0.000 A 
ATOM     20  C   UNL     1     159.802 120.058 163.281  0.00  0.00    +0.000 A 
ATOM     21  C   UNL     1     160.517 121.108 163.430  0.00  0.00    +0.000 A 
ATOM     22  C   UNL     1     160.359 120.493 163.054  0.00  0.00    +0.000 A 
ENDBRANCH  12  13
ENDBRANCH   1  12
BRANCH   1  23
ATOM     23  C   UNL     1     158.306 122.087 165.780  0.00  0.00    +0.000 C 
BRANCH  23  25
ATOM     24  O   UNL     1     158.678 123.310 165.486  0.00  0.00    +0.000 OA
ATOM     25  C   UNL     1     158.227 122.806 165.795  0.00  0.00    +0.000 C 
ATOM     26  C   UNL     1     158.402 123.968 165.628  0.00  0.00    +0.000 C 
ATOM     27  C   UNL     1     157.692 123.156 166.117  0.00  0.00    +0.000 C 
ATOM     28  C   UNL     1     157.789 123.865 166.021  0.00  0.00    +0.000 C 
ENDBRANCH  23  25
ENDBRANCH   1  23
TORSDOF 11
ENDMDL
MODEL 5
REMARK VINA RESULT:      -8.0     68.505     70.264
REMARK  Name = 
REMARK  11 active torsions:
REMARK  status: ('A' for Active; 'I' for Inactive)
REMARK    1  A    between atoms: C_1  and  C_3
REMARK    2  A    between atoms: C_1  and  O_10
REMARK    3  A    between atoms: C_2  and  C_4
REMARK    4  A    between atoms: C_3  and  C_4
REMARK    5  A    between atoms: C_3  and  C_6
REMARK    6  A    between atoms: C_6  and  C_11
REMARK    7  A    between atoms: O_10  and  C_14
REMARK    8  A    between atoms: N_12  and  C_17
REMARK    9  A    between atoms: N_12  and  C_20
REMARK   10  A    between atoms: N_12  and  C_21
REMARK   11  A    between atoms: C_14  and  C_17
REMARK                            x       y       z     vdW  Elec       q    Type
REMARK                         _______ _______ _______ _____ _____    ______ ____
ROOT
ATOM      1  C   UNL     1     115.676 113.537 113.038  0.00  0.00    +0.000 C 
ENDROOT
BRANCH   1   2
ATOM      2  C   UNL     1     115.110 113.105 113.175  0.00  0.00    +0.000 C 
ATOM      3  O   UNL     1     115.237 112.468 113.450  0.00  0.00    +0.000 OA
BRANCH   2   4
ATOM      4  O   UNL     1     114.470 113.342 113.027  0.00  0.00    +0.000 OA
BRANCH   4   5
ATOM      5  C   UNL     1     113.903 112.899 113.116  0.00  0.00    +0.000 C 
BRANCH   5   6
ATOM      6  C   UNL     1     113.244 113.153 113.065  0.00  0.00    +0.000 C 
BRANCH   6   7
ATOM      7  N   UNL     1     112.680 112.696 113.047  0.00  0.00    +0.000 NA
BRANCH   7   8
ATOM      8  C   UNL     1     112.340 112.593 112.433  0.00  0.00    +0.000 C 
ATOM      9  C   UNL     1     111.931 113.121 112.150  0.00  0.00    +0.000 C 
ENDBRANCH   7   8
BRANCH   7  10
ATOM     10  C   UNL     1     112.485 112.365 113.648  0.00  0.00    +0.000 C 
ATOM     11  C   UNL     1     111.823 112.071 113.708  0.00  0.00    +0.000 C 
ENDBRANCH   7  10
ENDBRANCH   6   7
ENDBRANCH   5   6
ENDBRANCH   4   5
ENDBRANCH   2   4
ENDBRANCH   1   2
BRANCH   1  12
ATOM     12  C   UNL     1     116.235 113.298 112.668  0.00  0.00    +0.000 C 
BRANCH  12  13
ATOM     13  C   UNL     1     116.310 113.442 111.957  0.00  0.00    +0.000 A 
ATOM     14  C   UNL     1     116.896 113.167 111.582  0.00  0.00    +0.000 A 
ATOM     15  C   UNL     1     116.972 113.313 110.862  0.00  0.00    +0.000 A 
ATOM     16  C   UNL     1     115.803 113.863 111.609  0.00  0.00    +0.000 A 
ATOM     17  C   UNL     1     115.879 114.009 110.889  0.00  0.00    +0.000 A 
ATOM     18  C   UNL     1     117.400 112.749 111.930  0.00  0.00    +0.000 A 
ATOM     19  C   UNL     1     116.461 113.735 110.519  0.00  0.00    +0.000 A 
ATOM     20  C   UNL     1     117.551 113.041 110.492  0.00  0.00    +0.000 A 
ATOM     21  C   UNL     1     117.983 112.475 111.555  0.00  0.00    +0.000 A 
ATOM     22  C   UNL     1     118.058 112.622 110.836  0.00  0.00    +0.000 A 
ENDBRANCH  12  13
ENDBRANCH   1  12
BRANCH   1  23
ATOM     23  C   UNL     1     115.681 114.220 113.277  0.00  0.00    +0.000 C 
BRANCH  23  25
ATOM     24  O   UNL     1     116.461 113.976 114.304  0.00  0.00    +0.000 OA
ATOM     25  C   UNL     1     115.945 114.365 113.935  0.00  0.00    +0.000 C 
ATOM     26  C   UNL     1     116.568 114.305 114.943  0.00  0.00    +0.000 C 
ATOM     27  C   UNL     1     115.748 114.916 114.346  0.00  0.00    +0.000 C 
ATOM     28  C   UNL     1     116.122 114.889 114.964  0.00  0.00    +0.000 C 
ENDBRANCH  23  25
ENDBRANCH   1  23
TORSDOF 11
ENDMDL
MODEL 6
REMARK VINA RESULT:      -7.7     58.867     60.792
REMARK  Name = 
REMARK  11 active torsions:
REMARK  status: ('A' for Active; 'I' for Inactive)
REMARK    1  A    between atoms: C_1  and  C_3
REMARK    2  A    between atoms: C_1  and  O_10
REMARK    3  A    between atoms: C_2  and  C_4
REMARK    4  A    between atoms: C_3  and  C_4
REMARK    5  A    between atoms: C_3  and  C_6
REMARK    6  A    between atoms: C_6  and  C_11
REMARK    7  A    between atoms: O_10  and  C_14
REMARK    8  A    between atoms: N_12  and  C_17
REMARK    9  A    between atoms: N_12  and  C_20
REMARK   10  A    between atoms: N_12  and  C_21
REMARK   11  A    between atoms: C_14  and  C_17
REMARK                            x       y       z     vdW  Elec       q    Type
REMARK                         _______ _______ _______ _____ _____    ______ ____
ROOT
ATOM      1  C   UNL     1     116.256 123.740 123.397  0.00  0.00    +0.000 C 
ENDROOT
BRANCH   1   2
ATOM      2  C   UNL     1     116.770 123.529 123.862  0.00  0.00    +0.000 C 
ATOM      3  O   UNL     1     116.571 123.326 124.507  0.00  0.00    +0.000 OA
BRANCH   2   4
ATOM      4  O   UNL     1     117.434 123.538 123.647  0.00  0.00    +0.000 OA
BRANCH   4   5
ATOM      5  C   UNL     1     117.953 123.315 124.102  0.00  0.00    +0.000 C 
BRANCH   5   6
ATOM      6  C   UNL     1     118.634 123.386 123.924  0.00  0.00    +0.000 C 
BRANCH   6   7
ATOM      7  N   UNL     1     119.149 123.065 124.324  0.00  0.00    +0.000 NA
BRANCH   7   8
ATOM      8  C   UNL     1     119.299 123.326 124.966  0.00  0.00    +0.000 C 
ATOM      9  C   UNL     1     119.852 123.054 125.349  0.00  0.00    +0.000 C 
ENDBRANCH   7   8
BRANCH   7  10
ATOM     10  C   UNL     1     119.488 122.496 124.058  0.00  0.00    +0.000 C 
ATOM     11  C   UNL     1     120.011 122.578 123.561  0.00  0.00    +0.000 C 
ENDBRANCH   7  10
ENDBRANCH   6   7
ENDBRANCH   5   6
ENDBRANCH   4   5
ENDBRANCH   2   4
ENDBRANCH   1   2
BRANCH   1  12
ATOM     12  C   UNL     1     116.346 124.319 122.992  0.00  0.00    +0.000 C 
BRANCH  12  13
ATOM     13  C   UNL     1     116.025 124.952 123.158  0.00  0.00    +0.000 A 
ATOM     14  C   UNL     1     116.109 125.541 122.704  0.00  0.00    +0.000 A 
ATOM     15  C   UNL     1     115.784 126.182 122.872  0.00  0.00    +0.000 A 
ATOM     16  C   UNL     1     115.617 125.010 123.778  0.00  0.00    +0.000 A 
ATOM     17  C   UNL     1     115.292 125.651 123.947  0.00  0.00    +0.000 A 
ATOM     18  C   UNL     1     116.516 125.482 122.087  0.00  0.00    +0.000 A 
ATOM     19  C   UNL     1     115.376 126.234 123.494  0.00  0.00    +0.000 A 
ATOM     20  C   UNL     1     115.867 126.763 122.423  0.00  0.00    +0.000 A 
ATOM     21  C   UNL     1     116.598 126.069 121.636  0.00  0.00    +0.000 A 
ATOM     22  C   UNL     1     116.273 126.710 121.804  0.00  0.00    +0.000 A 
ENDBRANCH  12  13
ENDBRANCH   1  12
BRANCH   1  23
ATOM     23  C   UNL     1     115.640 123.364 123.336  0.00  0.00    +0.000 C 
BRANCH  23  25
ATOM     24  O   UNL     1     115.888 122.759 122.198  0.00  0.00    +0.000 OA
ATOM     25  C   UNL     1     115.614 122.795 122.889  0.00  0.00    +0.000 C 
ATOM     26  C   UNL     1     115.746 122.093 121.942  0.00  0.00    +0.000 C 
ATOM     27  C   UNL     1     115.313 122.165 123.041  0.00  0.00    +0.000 C 
ATOM     28  C   UNL     1     115.388 121.729 122.470  0.00  0.00    +0.000 C 
ENDBRANCH  23  25
ENDBRANCH   1  23
TORSDOF 11
ENDMDL
MODEL 7
REMARK VINA RESULT:      -7.6     45.113     47.651
REMARK  Name = 
REMARK  11 active torsions:
REMARK  status: ('A' for Active; 'I' for Inactive)
REMARK    1  A    between atoms: C_1  and  C_3
REMARK    2  A    between atoms: C_1  and  O_10
REMARK    3  A    between atoms: C_2  and  C_4
REMARK    4  A    between atoms: C_3  and  C_4
REMARK    5  A    between atoms: C_3  and  C_6
REMARK    6  A    between atoms: C_6  and  C_11
REMARK    7  A    between atoms: O_10  and  C_14
REMARK    8  A    between atoms: N_12  and  C_17
REMARK    9  A    between atoms: N_12  and  C_20
REMARK   10  A    between atoms: N_12  and  C_21
REMARK   11  A    between atoms: C_14  and  C_17
REMARK                            x       y       z     vdW  Elec       q    Type
REMARK                         _______ _______ _______ _____ _____    ______ ____
ROOT
ATOM      1  C   UNL     1     113.146 126.427 156.955  0.00  0.00    +0.000 C 
ENDROOT
BRANCH   1   2
ATOM      2  C   UNL     1     113.571 126.457 157.541  0.00  0.00    +0.000 C 
ATOM      3  O   UNL     1     113.381 126.084 158.108  0.00  0.00    +0.000 OA
BRANCH   2   4
ATOM      4  O   UNL     1     114.147 126.852 157.513  0.00  0.00    +0.000 OA
BRANCH   4   5
ATOM      5  C   UNL     1     114.579 126.883 158.094  0.00  0.00    +0.000 C 
BRANCH   5   6
ATOM      6  C   UNL     1     115.137 127.319 158.097  0.00  0.00    +0.000 C 
BRANCH   6   7
ATOM      7  N   UNL     1     115.618 127.288 158.639  0.00  0.00    +0.000 NA
BRANCH   7   8
ATOM      8  C   UNL     1     116.255 126.999 158.519  0.00  0.00    +0.000 C 
ATOM      9  C   UNL     1     116.791 127.402 158.241  0.00  0.00    +0.000 C 
ENDBRANCH   7   8
BRANCH   7  10
ATOM     10  C   UNL     1     115.436 127.549 159.278  0.00  0.00    +0.000 C 
ATOM     11  C   UNL     1     115.946 127.711 159.769  0.00  0.00    +0.000 C 
ENDBRANCH   7  10
ENDBRANCH   6   7
ENDBRANCH   5   6
ENDBRANCH   4   5
ENDBRANCH   2   4
ENDBRANCH   1   2
BRANCH   1  12
ATOM     12  C   UNL     1     112.951 127.023 156.616  0.00  0.00    +0.000 C 
BRANCH  12  13
ATOM     13  C   UNL     1     112.288 127.312 156.707  0.00  0.00    +0.000 A 
ATOM     14  C   UNL     1     112.103 127.937 156.340  0.00  0.00    +0.000 A 
ATOM     15  C   UNL     1     111.432 128.230 156.432  0.00  0.00    +0.000 A 
ATOM     16  C   UNL     1     111.800 126.984 157.164  0.00  0.00    +0.000 A 
ATOM     17  C   UNL     1     111.129 127.276 157.256  0.00  0.00    +0.000 A 
ATOM     18  C   UNL     1     112.590 128.262 155.886  0.00  0.00    +0.000 A 
ATOM     19  C   UNL     1     110.947 127.897 156.891  0.00  0.00    +0.000 A 
ATOM     20  C   UNL     1     111.249 128.848 156.070  0.00  0.00    +0.000 A 
ATOM     21  C   UNL     1     112.404 128.885 155.521  0.00  0.00    +0.000 A 
ATOM     22  C   UNL     1     111.733 129.178 155.613  0.00  0.00    +0.000 A 
ENDBRANCH  12  13
ENDBRANCH   1  12
BRANCH   1  23
ATOM     23  C   UNL     1     112.912 125.789 156.704  0.00  0.00    +0.000 C 
BRANCH  23  25
ATOM     24  O   UNL     1     113.692 125.679 155.655  0.00  0.00    +0.000 OA
ATOM     25  C   UNL     1     113.328 125.413 156.247  0.00  0.00    +0.000 C 
ATOM     26  C   UNL     1     114.042 125.122 155.346  0.00  0.00    +0.000 C 
ATOM     27  C   UNL     1     113.458 124.712 156.290  0.00  0.00    +0.000 C 
ATOM     28  C   UNL     1     113.893 124.523 155.745  0.00  0.00    +0.000 C 
ENDBRANCH  23  25
ENDBRANCH   1  23
TORSDOF 11
ENDMDL
MODEL 8
REMARK VINA RESULT:      -7.6     21.219     22.593
REMARK  Name = 
REMARK  11 active torsions:
REMARK  status: ('A' for Active; 'I' for Inactive)
REMARK    1  A    between atoms: C_1  and  C_3
REMARK    2  A    between atoms: C_1  and  O_10
REMARK    3  A    between atoms: C_2  and  C_4
REMARK    4  A    between atoms: C_3  and  C_4
REMARK    5  A    between atoms: C_3  and  C_6
REMARK    6  A    between atoms: C_6  and  C_11
REMARK    7  A    between atoms: O_10  and  C_14
REMARK    8  A    between atoms: N_12  and  C_17
REMARK    9  A    between atoms: N_12  and  C_20
REMARK   10  A    between atoms: N_12  and  C_21
REMARK   11  A    between atoms: C_14  and  C_17
REMARK                            x       y       z     vdW  Elec       q    Type
REMARK                         _______ _______ _______ _____ _____    ______ ____
ROOT
ATOM      1  C   UNL     1     143.287 109.160 160.873  0.00  0.00    +0.000 C 
ENDROOT
BRANCH   1   2
ATOM      2  C   UNL     1     143.670 108.598 161.123  0.00  0.00    +0.000 C 
ATOM      3  O   UNL     1     144.350 108.701 161.278  0.00  0.00    +0.000 OA
BRANCH   2   4
ATOM      4  O   UNL     1     143.345 107.984 161.198  0.00  0.00    +0.000 OA
BRANCH   4   5
ATOM      5  C   UNL     1     143.733 107.404 161.396  0.00  0.00    +0.000 C 
BRANCH   5   6
ATOM      6  C   UNL     1     143.406 106.799 161.561  0.00  0.00    +0.000 C 
BRANCH   6   7
ATOM      7  N   UNL     1     143.777 106.175 161.566  0.00  0.00    +0.000 NA
BRANCH   7   8
ATOM      8  C   UNL     1     144.205 106.033 162.113  0.00  0.00    +0.000 C 
ATOM      9  C   UNL     1     144.158 105.396 162.457  0.00  0.00    +0.000 C 
ENDBRANCH   7   8
BRANCH   7  10
ATOM     10  C   UNL     1     143.699 105.723 161.019  0.00  0.00    +0.000 C 
ATOM     11  C   UNL     1     143.109 105.303 160.968  0.00  0.00    +0.000 C 
ENDBRANCH   7  10
ENDBRANCH   6   7
ENDBRANCH   5   6
ENDBRANCH   4   5
ENDBRANCH   2   4
ENDBRANCH   1   2
BRANCH   1  12
ATOM     12  C   UNL     1     142.650 109.318 161.148  0.00  0.00    +0.000 C 
BRANCH  12  13
ATOM     13  C   UNL     1     142.564 109.871 161.615  0.00  0.00    +0.000 A 
ATOM     14  C   UNL     1     141.889 110.008 161.908  0.00  0.00    +0.000 A 
ATOM     15  C   UNL     1     141.802 110.568 162.381  0.00  0.00    +0.000 A 
ATOM     16  C   UNL     1     143.148 110.295 161.799  0.00  0.00    +0.000 A 
ATOM     17  C   UNL     1     143.061 110.855 162.272  0.00  0.00    +0.000 A 
ATOM     18  C   UNL     1     141.308 109.585 161.723  0.00  0.00    +0.000 A 
ATOM     19  C   UNL     1     142.390 110.990 162.561  0.00  0.00    +0.000 A 
ATOM     20  C   UNL     1     141.135 110.703 162.669  0.00  0.00    +0.000 A 
ATOM     21  C   UNL     1     140.637 109.723 162.015  0.00  0.00    +0.000 A 
ATOM     22  C   UNL     1     140.550 110.283 162.488  0.00  0.00    +0.000 A 
ENDBRANCH  12  13
ENDBRANCH   1  12
BRANCH   1  23
ATOM     23  C   UNL     1     143.549 109.572 160.337  0.00  0.00    +0.000 C 
BRANCH  23  25
ATOM     24  O   UNL     1     142.840 109.132 159.325  0.00  0.00    +0.000 OA
ATOM     25  C   UNL     1     143.470 109.355 159.652  0.00  0.00    +0.000 C 
ATOM     26  C   UNL     1     142.999 108.963 158.636  0.00  0.00    +0.000 C 
ATOM     27  C   UNL     1     143.994 109.320 159.167  0.00  0.00    +0.000 C 
ATOM     28  C   UNL     1     143.718 109.082 158.544  0.00  0.00    +0.000 C 
ENDBRANCH  23  25
ENDBRANCH   1  23
TORSDOF 11
ENDMDL
MODEL 9
REMARK VINA RESULT:      -7.6      1.977      4.137
REMARK  Name = 
REMARK  11 active torsions:
REMARK  status: ('A' for Active; 'I' for Inactive)
REMARK    1  A    between atoms: C_1  and  C_3
REMARK    2  A    between atoms: C_1  and  O_10
REMARK    3  A    between atoms: C_2  and  C_4
REMARK    4  A    between atoms: C_3  and  C_4
REMARK    5  A    between atoms: C_3  and  C_6
REMARK    6  A    between atoms: C_6  and  C_11
REMARK    7  A    between atoms: O_10  and  C_14
REMARK    8  A    between atoms: N_12  and  C_17
REMARK    9  A    between atoms: N_12  and  C_20
REMARK   10  A    between atoms: N_12  and  C_21
REMARK   11  A    between atoms: C_14  and  C_17
REMARK                            x       y       z     vdW  Elec       q    Type
REMARK                         _______ _______ _______ _____ _____    ______ ____
ROOT
ATOM      1  C   UNL     1     159.368 121.812 165.787  0.00  0.00    +0.000 C 
ENDROOT
BRANCH   1   2
ATOM      2  C   UNL     1     159.282 121.215 165.385  0.00  0.00    +0.000 C 
ATOM      3  O   UNL     1     158.962 120.660 165.677  0.00  0.00    +0.000 OA
BRANCH   2   4
ATOM      4  O   UNL     1     159.522 121.222 164.728  0.00  0.00    +0.000 OA
BRANCH   4   5
ATOM      5  C   UNL     1     159.559 120.597 164.363  0.00  0.00    +0.000 C 
BRANCH   5   6
ATOM      6  C   UNL     1     159.656 120.603 163.662  0.00  0.00    +0.000 C 
BRANCH   6   7
ATOM      7  N   UNL     1     159.929 120.018 163.328  0.00  0.00    +0.000 NA
BRANCH   7   8
ATOM      8  C   UNL     1     160.584 120.049 163.059  0.00  0.00    +0.000 C 
ATOM      9  C   UNL     1     160.700 120.374 162.421  0.00  0.00    +0.000 C 
ENDBRANCH   7   8
BRANCH   7  10
ATOM     10  C   UNL     1     159.528 119.429 163.282  0.00  0.00    +0.000 C 
ATOM     11  C   UNL     1     159.780 118.837 162.946  0.00  0.00    +0.000 C 
ENDBRANCH   7  10
ENDBRANCH   6   7
ENDBRANCH   5   6
ENDBRANCH   4   5
ENDBRANCH   2   4
ENDBRANCH   1   2
BRANCH   1  12
ATOM     12  C   UNL     1     159.680 121.778 166.427  0.00  0.00    +0.000 C 
BRANCH  12  13
ATOM     13  C   UNL     1     160.373 121.982 166.522  0.00  0.00    +0.000 A 
ATOM     14  C   UNL     1     160.710 121.854 167.178  0.00  0.00    +0.000 A 
ATOM     15  C   UNL     1     161.412 122.061 167.275  0.00  0.00    +0.000 A 
ATOM     16  C   UNL     1     160.741 122.316 165.967  0.00  0.00    +0.000 A 
ATOM     17  C   UNL     1     161.443 122.522 166.064  0.00  0.00    +0.000 A 
ATOM     18  C   UNL     1     160.342 121.522 167.729  0.00  0.00    +0.000 A 
ATOM     19  C   UNL     1     161.776 122.395 166.716  0.00  0.00    +0.000 A 
ATOM     20  C   UNL     1     161.745 121.935 167.922  0.00  0.00    +0.000 A 
ATOM     21  C   UNL     1     160.679 121.396 168.381  0.00  0.00    +0.000 A 
ATOM     22  C   UNL     1     161.381 121.602 168.478  0.00  0.00    +0.000 A 
ENDBRANCH  12  13
ENDBRANCH   1  12
BRANCH   1  23
ATOM     23  C   UNL     1     159.136 122.454 165.544  0.00  0.00    +0.000 C 
BRANCH  23  25
ATOM     24  O   UNL     1     157.940 122.284 166.056  0.00  0.00    +0.000 OA
ATOM     25  C   UNL     1     158.470 122.678 165.713  0.00  0.00    +0.000 C 
ATOM     26  C   UNL     1     157.356 122.712 166.120  0.00  0.00    +0.000 C 
ATOM     27  C   UNL     1     158.207 123.329 165.574  0.00  0.00    +0.000 C 
ATOM     28  C   UNL     1     157.527 123.360 165.818  0.00  0.00    +0.000 C 
ENDBRANCH  23  25
ENDBRANCH   1  23
TORSDOF 11
ENDMDL
MODEL 10
REMARK VINA RESULT:      -7.6     59.260     61.210
REMARK  Name = 
REMARK  11 active torsions:
REMARK  status: ('A' for Active; 'I' for Inactive)
REMARK    1  A    between atoms: C_1  and  C_3
REMARK    2  A    between atoms: C_1  and  O_10
REMARK    3  A    between atoms: C_2  and  C_4
REMARK    4  A    between atoms: C_3  and  C_4
REMARK    5  A    between atoms: C_3  and  C_6
REMARK    6  A    between atoms: C_6  and  C_11
REMARK    7  A    between atoms: O_10  and  C_14
REMARK    8  A    between atoms: N_12  and  C_17
REMARK    9  A    between atoms: N_12  and  C_20
REMARK   10  A    between atoms: N_12  and  C_21
REMARK   11  A    between atoms: C_14  and  C_17
REMARK                            x       y       z     vdW  Elec       q    Type
REMARK                         _______ _______ _______ _____ _____    ______ ____
ROOT
ATOM      1  C   UNL     1     116.782 123.729 123.571  0.00  0.00    +0.000 C 
ENDROOT
BRANCH   1   2
ATOM      2  C   UNL     1     116.421 123.105 123.495  0.00  0.00    +0.000 C 
ATOM      3  O   UNL     1     116.066 122.857 124.051  0.00  0.00    +0.000 OA
BRANCH   2   4
ATOM      4  O   UNL     1     116.444 122.783 122.875  0.00  0.00    +0.000 OA
BRANCH   4   5
ATOM      5  C   UNL     1     116.115 122.141 122.802  0.00  0.00    +0.000 C 
BRANCH   5   6
ATOM      6  C   UNL     1     116.087 121.828 122.168  0.00  0.00    +0.000 C 
BRANCH   6   7
ATOM      7  N   UNL     1     115.894 121.130 122.116  0.00  0.00    +0.000 NA
BRANCH   7   8
ATOM      8  C   UNL     1     115.221 120.969 121.960  0.00  0.00    +0.000 C 
ATOM      9  C   UNL     1     115.015 120.895 121.269  0.00  0.00    +0.000 C 
ENDBRANCH   7   8
BRANCH   7  10
ATOM     10  C   UNL     1     116.389 120.627 122.223  0.00  0.00    +0.000 C 
ATOM     11  C   UNL     1     116.445 120.063 121.769  0.00  0.00    +0.000 C 
ENDBRANCH   7  10
ENDBRANCH   6   7
ENDBRANCH   5   6
ENDBRANCH   4   5
ENDBRANCH   2   4
ENDBRANCH   1   2
BRANCH   1  12
ATOM     12  C   UNL     1     116.711 124.252 123.092  0.00  0.00    +0.000 C 
BRANCH  12  13
ATOM     13  C   UNL     1     116.294 124.834 123.226  0.00  0.00    +0.000 A 
ATOM     14  C   UNL     1     116.274 125.397 122.733  0.00  0.00    +0.000 A 
ATOM     15  C   UNL     1     115.852 125.987 122.868  0.00  0.00    +0.000 A 
ATOM     16  C   UNL     1     115.890 124.866 123.851  0.00  0.00    +0.000 A 
ATOM     17  C   UNL     1     115.468 125.456 123.987  0.00  0.00    +0.000 A 
ATOM     18  C   UNL     1     116.677 125.364 122.111  0.00  0.00    +0.000 A 
ATOM     19  C   UNL     1     115.450 126.013 123.496  0.00  0.00    +0.000 A 
ATOM     20  C   UNL     1     115.833 126.543 122.382  0.00  0.00    +0.000 A 
ATOM     21  C   UNL     1     116.656 125.925 121.622  0.00  0.00    +0.000 A 
ATOM     22  C   UNL     1     116.233 126.515 121.757  0.00  0.00    +0.000 A 
ENDBRANCH  12  13
ENDBRANCH   1  12
BRANCH   1  23
ATOM     23  C   UNL     1     117.223 123.830 124.137  0.00  0.00    +0.000 C 
BRANCH  23  25
ATOM     24  O   UNL     1     118.381 123.664 123.542  0.00  0.00    +0.000 OA
ATOM     25  C   UNL     1     117.903 123.583 124.106  0.00  0.00    +0.000 C 
ATOM     26  C   UNL     1     119.001 123.337 123.733  0.00  0.00    +0.000 C 
ATOM     27  C   UNL     1     118.231 123.215 124.624  0.00  0.00    +0.000 C 
ATOM     28  C   UNL     1     118.902 123.060 124.407  0.00  0.00    +0.000 C 
ENDBRANCH  23  25
ENDBRANCH   1  23
TORSDOF 11
ENDMDL
MODEL 11
REMARK VINA RESULT:      -7.5     13.279     15.114
REMARK  Name = 
REMARK  11 active torsions:
REMARK  status: ('A' for Active; 'I' for Inactive)
REMARK    1  A    between atoms: C_1  and  C_3
REMARK    2  A    between atoms: C_1  and  O_10
REMARK    3  A    between atoms: C_2  and  C_4
REMARK    4  A    between atoms: C_3  and  C_4
REMARK    5  A    between atoms: C_3  and  C_6
REMARK    6  A    between atoms: C_6  and  C_11
REMARK    7  A    between atoms: O_10  and  C_14
REMARK    8  A    between atoms: N_12  and  C_17
REMARK    9  A    between atoms: N_12  and  C_20
REMARK   10  A    between atoms: N_12  and  C_21
REMARK   11  A    between atoms: C_14  and  C_17
REMARK                            x       y       z     vdW  Elec       q    Type
REMARK                         _______ _______ _______ _____ _____    ______ ____
ROOT
ATOM      1  C   UNL     1     160.431 132.446 155.225  0.00  0.00    +0.000 C 
ENDROOT
BRANCH   1   2
ATOM      2  C   UNL     1     159.910 132.273 155.699  0.00  0.00    +0.000 C 
ATOM      3  O   UNL     1     159.728 131.595 155.758  0.00  0.00    +0.000 OA
BRANCH   2   4
ATOM      4  O   UNL     1     159.618 132.787 156.070  0.00  0.00    +0.000 OA
BRANCH   4   5
ATOM      5  C   UNL     1     159.040 132.637 156.481  0.00  0.00    +0.000 C 
BRANCH   5   6
ATOM      6  C   UNL     1     158.813 133.107 156.959  0.00  0.00    +0.000 C 
BRANCH   6   7
ATOM      7  N   UNL     1     158.139 133.058 157.225  0.00  0.00    +0.000 NA
BRANCH   7   8
ATOM      8  C   UNL     1     157.662 133.553 157.049  0.00  0.00    +0.000 C 
ATOM      9  C   UNL     1     157.654 134.190 157.396  0.00  0.00    +0.000 C 
ENDBRANCH   7   8
BRANCH   7  10
ATOM     10  C   UNL     1     157.977 132.513 157.656  0.00  0.00    +0.000 C 
ATOM     11  C   UNL     1     157.329 132.481 157.982  0.00  0.00    +0.000 C 
ENDBRANCH   7  10
ENDBRANCH   6   7
ENDBRANCH   5   6
ENDBRANCH   4   5
ENDBRANCH   2   4
ENDBRANCH   1   2
BRANCH   1  12
ATOM     12  C   UNL     1     160.423 132.184 154.563  0.00  0.00    +0.000 C 
BRANCH  12  13
ATOM     13  C   UNL     1     160.176 132.579 154.002  0.00  0.00    +0.000 A 
ATOM     14  C   UNL     1     160.123 132.268 153.323  0.00  0.00    +0.000 A 
ATOM     15  C   UNL     1     159.873 132.668 152.756  0.00  0.00    +0.000 A 
ATOM     16  C   UNL     1     159.979 133.290 154.107  0.00  0.00    +0.000 A 
ATOM     17  C   UNL     1     159.729 133.690 153.539  0.00  0.00    +0.000 A 
ATOM     18  C   UNL     1     160.320 131.560 153.221  0.00  0.00    +0.000 A 
ATOM     19  C   UNL     1     159.677 133.379 152.867  0.00  0.00    +0.000 A 
ATOM     20  C   UNL     1     159.821 132.360 152.086  0.00  0.00    +0.000 A 
ATOM     21  C   UNL     1     160.266 131.252 152.545  0.00  0.00    +0.000 A 
ATOM     22  C   UNL     1     160.016 131.652 151.977  0.00  0.00    +0.000 A 
ENDBRANCH  12  13
ENDBRANCH   1  12
BRANCH   1  23
ATOM     23  C   UNL     1     160.970 132.888 155.419  0.00  0.00    +0.000 C 
BRANCH  23  25
ATOM     24  O   UNL     1     161.766 131.888 155.714  0.00  0.00    +0.000 OA
ATOM     25  C   UNL     1     161.583 132.608 155.683  0.00  0.00    +0.000 C 
ATOM     26  C   UNL     1     162.426 131.843 156.017  0.00  0.00    +0.000 C 
ATOM     27  C   UNL     1     162.122 132.986 155.962  0.00  0.00    +0.000 C 
ATOM     28  C   UNL     1     162.642 132.529 156.170  0.00  0.00    +0.000 C 
ENDBRANCH  23  25
ENDBRANCH   1  23
TORSDOF 11
ENDMDL
MODEL 12
REMARK VINA RESULT:      -7.5     13.033     14.863
REMARK  Name = 
REMARK  11 active torsions:
REMARK  status: ('A' for Active; 'I' for Inactive)
REMARK    1  A    between atoms: C_1  and  C_3
REMARK    2  A    between atoms: C_1  and  O_10
REMARK    3  A    between atoms: C_2  and  C_4
REMARK    4  A    between atoms: C_3  and  C_4
REMARK    5  A    between atoms: C_3  and  C_6
REMARK    6  A    between atoms: C_6  and  C_11
REMARK    7  A    between atoms: O_10  and  C_14
REMARK    8  A    between atoms: N_12  and  C_17
REMARK    9  A    between atoms: N_12  and  C_20
REMARK   10  A    between atoms: N_12  and  C_21
REMARK   11  A    between atoms: C_14  and  C_17
REMARK                            x       y       z     vdW  Elec       q    Type
REMARK                         _______ _______ _______ _____ _____    ______ ____
ROOT
ATOM      1  C   UNL     1     160.272 133.264 155.936  0.00  0.00    +0.000 C 
ENDROOT
BRANCH   1   2
ATOM      2  C   UNL     1     160.308 133.271 155.211  0.00  0.00    +0.000 C 
ATOM      3  O   UNL     1     160.313 133.896 154.886  0.00  0.00    +0.000 OA
BRANCH   2   4
ATOM      4  O   UNL     1     160.335 132.659 154.876  0.00  0.00    +0.000 OA
BRANCH   4   5
ATOM      5  C   UNL     1     160.387 132.659 154.153  0.00  0.00    +0.000 C 
BRANCH   5   6
ATOM      6  C   UNL     1     160.417 132.046 153.800  0.00  0.00    +0.000 C 
BRANCH   6   7
ATOM      7  N   UNL     1     160.565 132.043 153.089  0.00  0.00    +0.000 NA
BRANCH   7   8
ATOM      8  C   UNL     1     160.033 132.117 152.626  0.00  0.00    +0.000 C 
ATOM      9  C   UNL     1     159.995 131.687 152.043  0.00  0.00    +0.000 C 
ENDBRANCH   7   8
BRANCH   7  10
ATOM     10  C   UNL     1     161.243 131.964 152.878  0.00  0.00    +0.000 C 
ATOM     11  C   UNL     1     161.517 131.303 152.758  0.00  0.00    +0.000 C 
ENDBRANCH   7  10
ENDBRANCH   6   7
ENDBRANCH   5   6
ENDBRANCH   4   5
ENDBRANCH   2   4
ENDBRANCH   1   2
BRANCH   1  12
ATOM     12  C   UNL     1     159.805 132.845 156.273  0.00  0.00    +0.000 C 
BRANCH  12  13
ATOM     13  C   UNL     1     159.191 133.114 156.558  0.00  0.00    +0.000 A 
ATOM     14  C   UNL     1     158.703 132.654 156.890  0.00  0.00    +0.000 A 
ATOM     15  C   UNL     1     158.081 132.927 157.179  0.00  0.00    +0.000 A 
ATOM     16  C   UNL     1     159.052 133.845 156.518  0.00  0.00    +0.000 A 
ATOM     17  C   UNL     1     158.430 134.118 156.806  0.00  0.00    +0.000 A 
ATOM     18  C   UNL     1     158.843 131.927 156.930  0.00  0.00    +0.000 A 
ATOM     19  C   UNL     1     157.948 133.659 157.135  0.00  0.00    +0.000 A 
ATOM     20  C   UNL     1     157.600 132.472 157.507  0.00  0.00    +0.000 A 
ATOM     21  C   UNL     1     158.356 131.470 157.261  0.00  0.00    +0.000 A 
ATOM     22  C   UNL     1     157.734 131.743 157.550  0.00  0.00    +0.000 A 
ENDBRANCH  12  13
ENDBRANCH   1  12
BRANCH   1  23
ATOM     23  C   UNL     1     160.713 133.683 156.328  0.00  0.00    +0.000 C 
BRANCH  23  25
ATOM     24  O   UNL     1     161.597 132.747 156.580  0.00  0.00    +0.000 OA
ATOM     25  C   UNL     1     161.382 133.452 156.480  0.00  0.00    +0.000 C 
ATOM     26  C   UNL     1     162.311 132.755 156.722  0.00  0.00    +0.000 C 
ATOM     27  C   UNL     1     161.955 133.873 156.559  0.00  0.00    +0.000 C 
ATOM     28  C   UNL     1     162.527 133.457 156.707  0.00  0.00    +0.000 C 
ENDBRANCH  23  25
ENDBRANCH   1  23
TORSDOF 11
ENDMDL
MODEL 13
REMARK VINA RESULT:      -7.5     13.048     14.384
REMARK  Name = 
REMARK  11 active torsions:
REMARK  status: ('A' for Active; 'I' for Inactive)
REMARK    1  A    between atoms: C_1  and  C_3
REMARK    2  A    between atoms: C_1  and  O_10
REMARK    3  A    between atoms: C_2  and  C_4
REMARK    4  A    between atoms: C_3  and  C_4
REMARK    5  A    between atoms: C_3  and  C_6
REMARK    6  A    between atoms: C_6  and  C_11
REMARK    7  A    between atoms: O_10  and  C_14
REMARK    8  A    between atoms: N_12  and  C_17
REMARK    9  A    between atoms: N_12  and  C_20
REMARK   10  A    between atoms: N_12  and  C_21
REMARK   11  A    between atoms: C_14  and  C_17
REMARK                            x       y       z     vdW  Elec       q    Type
REMARK                         _______ _______ _______ _____ _____    ______ ____
ROOT
ATOM      1  C   UNL     1     159.866 132.917 155.920  0.00  0.00    +0.000 C 
ENDROOT
BRANCH   1   2
ATOM      2  C   UNL     1     160.556 132.950 156.140  0.00  0.00    +0.000 C 
ATOM      3  O   UNL     1     160.959 132.378 156.056  0.00  0.00    +0.000 OA
BRANCH   2   4
ATOM      4  O   UNL     1     160.784 133.546 156.425  0.00  0.00    +0.000 OA
BRANCH   4   5
ATOM      5  C   UNL     1     161.443 133.560 156.726  0.00  0.00    +0.000 C 
BRANCH   5   6
ATOM      6  C   UNL     1     161.759 134.180 156.858  0.00  0.00    +0.000 C 
BRANCH   6   7
ATOM      7  N   UNL     1     162.313 134.213 157.327  0.00  0.00    +0.000 NA
BRANCH   7   8
ATOM      8  C   UNL     1     162.915 133.871 157.174  0.00  0.00    +0.000 C 
ATOM      9  C   UNL     1     163.482 133.912 157.624  0.00  0.00    +0.000 C 
ENDBRANCH   7   8
BRANCH   7  10
ATOM     10  C   UNL     1     162.233 134.589 157.928  0.00  0.00    +0.000 C 
ATOM     11  C   UNL     1     162.263 135.315 157.915  0.00  0.00    +0.000 C 
ENDBRANCH   7  10
ENDBRANCH   6   7
ENDBRANCH   5   6
ENDBRANCH   4   5
ENDBRANCH   2   4
ENDBRANCH   1   2
BRANCH   1  12
ATOM     12  C   UNL     1     159.338 133.139 156.343  0.00  0.00    +0.000 C 
BRANCH  12  13
ATOM     13  C   UNL     1     158.911 132.666 156.698  0.00  0.00    +0.000 A 
ATOM     14  C   UNL     1     158.368 132.920 157.145  0.00  0.00    +0.000 A 
ATOM     15  C   UNL     1     157.936 132.441 157.504  0.00  0.00    +0.000 A 
ATOM     16  C   UNL     1     159.019 131.934 156.613  0.00  0.00    +0.000 A 
ATOM     17  C   UNL     1     158.587 131.455 156.972  0.00  0.00    +0.000 A 
ATOM     18  C   UNL     1     158.262 133.649 157.228  0.00  0.00    +0.000 A 
ATOM     19  C   UNL     1     158.048 131.709 157.416  0.00  0.00    +0.000 A 
ATOM     20  C   UNL     1     157.399 132.692 157.946  0.00  0.00    +0.000 A 
ATOM     21  C   UNL     1     157.720 133.900 157.674  0.00  0.00    +0.000 A 
ATOM     22  C   UNL     1     157.289 133.421 158.033  0.00  0.00    +0.000 A 
ENDBRANCH  12  13
ENDBRANCH   1  12
BRANCH   1  23
ATOM     23  C   UNL     1     159.704 132.657 155.264  0.00  0.00    +0.000 C 
BRANCH  23  25
ATOM     24  O   UNL     1     159.420 133.784 154.654  0.00  0.00    +0.000 OA
ATOM     25  C   UNL     1     159.714 133.101 154.693  0.00  0.00    +0.000 C 
ATOM     26  C   UNL     1     159.551 134.040 153.987  0.00  0.00    +0.000 C 
ATOM     27  C   UNL     1     160.014 132.953 154.061  0.00  0.00    +0.000 C 
ATOM     28  C   UNL     1     159.921 133.520 153.622  0.00  0.00    +0.000 C 
ENDBRANCH  23  25
ENDBRANCH   1  23
TORSDOF 11
ENDMDL
MODEL 14
REMARK VINA RESULT:      -7.5     33.652     35.828
REMARK  Name = 
REMARK  11 active torsions:
REMARK  status: ('A' for Active; 'I' for Inactive)
REMARK    1  A    between atoms: C_1  and  C_3
REMARK    2  A    between atoms: C_1  and  O_10
REMARK    3  A    between atoms: C_2  and  C_4
REMARK    4  A    between atoms: C_3  and  C_4
REMARK    5  A    between atoms: C_3  and  C_6
REMARK    6  A    between atoms: C_6  and  C_11
REMARK    7  A    between atoms: O_10  and  C_14
REMARK    8  A    between atoms: N_12  and  C_17
REMARK    9  A    between atoms: N_12  and  C_20
REMARK   10  A    between atoms: N_12  and  C_21
REMARK   11  A    between atoms: C_14  and  C_17
REMARK                            x       y       z     vdW  Elec       q    Type
REMARK                         _______ _______ _______ _____ _____    ______ ____
ROOT
ATOM      1  C   UNL     1     129.647 137.873 153.653  0.00  0.00    +0.000 C 
ENDROOT
BRANCH   1   2
ATOM      2  C   UNL     1     129.805 137.253 153.312  0.00  0.00    +0.000 C 
ATOM      3  O   UNL     1     129.309 136.963 152.904  0.00  0.00    +0.000 OA
BRANCH   2   4
ATOM      4  O   UNL     1     130.439 136.976 153.406  0.00  0.00    +0.000 OA
BRANCH   4   5
ATOM      5  C   UNL     1     130.612 136.368 153.049  0.00  0.00    +0.000 C 
BRANCH   5   6
ATOM      6  C   UNL     1     131.258 136.088 153.120  0.00  0.00    +0.000 C 
BRANCH   6   7
ATOM      7  N   UNL     1     131.424 135.468 152.781  0.00  0.00    +0.000 NA
BRANCH   7   8
ATOM      8  C   UNL     1     131.182 134.855 153.045  0.00  0.00    +0.000 C 
ATOM      9  C   UNL     1     131.469 134.226 152.827  0.00  0.00    +0.000 C 
ENDBRANCH   7   8
BRANCH   7  10
ATOM     10  C   UNL     1     131.826 135.493 152.192  0.00  0.00    +0.000 C 
ATOM     11  C   UNL     1     132.541 135.614 152.239  0.00  0.00    +0.000 C 
ENDBRANCH   7  10
ENDBRANCH   6   7
ENDBRANCH   5   6
ENDBRANCH   4   5
ENDBRANCH   2   4
ENDBRANCH   1   2
BRANCH   1  12
ATOM     12  C   UNL     1     130.103 138.420 153.642  0.00  0.00    +0.000 C 
BRANCH  12  13
ATOM     13  C   UNL     1     129.997 138.994 153.206  0.00  0.00    +0.000 A 
ATOM     14  C   UNL     1     130.487 139.560 153.212  0.00  0.00    +0.000 A 
ATOM     15  C   UNL     1     130.379 140.142 152.770  0.00  0.00    +0.000 A 
ATOM     16  C   UNL     1     129.403 139.015 152.758  0.00  0.00    +0.000 A 
ATOM     17  C   UNL     1     129.295 139.596 152.316  0.00  0.00    +0.000 A 
ATOM     18  C   UNL     1     131.078 139.538 153.659  0.00  0.00    +0.000 A 
ATOM     19  C   UNL     1     129.782 140.156 152.324  0.00  0.00    +0.000 A 
ATOM     20  C   UNL     1     130.863 140.700 152.777  0.00  0.00    +0.000 A 
ATOM     21  C   UNL     1     131.564 140.102 153.664  0.00  0.00    +0.000 A 
ATOM     22  C   UNL     1     131.457 140.684 153.222  0.00  0.00    +0.000 A 
ENDBRANCH  12  13
ENDBRANCH   1  12
BRANCH   1  23
ATOM     23  C   UNL     1     129.022 137.945 154.011  0.00  0.00    +0.000 C 
BRANCH  23  25
ATOM     24  O   UNL     1     129.449 137.860 155.248  0.00  0.00    +0.000 OA
ATOM     25  C   UNL     1     128.975 137.713 154.694  0.00  0.00    +0.000 C 
ATOM     26  C   UNL     1     129.202 137.523 155.843  0.00  0.00    +0.000 C 
ATOM     27  C   UNL     1     128.454 137.297 154.953  0.00  0.00    +0.000 C 
ATOM     28  C   UNL     1     128.583 137.175 155.654  0.00  0.00    +0.000 C 
ENDBRANCH  23  25
ENDBRANCH   1  23
TORSDOF 11
ENDMDL
MODEL 15
REMARK VINA RESULT:      -7.4     19.819     21.588
REMARK  Name = 
REMARK  11 active torsions:
REMARK  status: ('A' for Active; 'I' for Inactive)
REMARK    1  A    between atoms: C_1  and  C_3
REMARK    2  A    between atoms: C_1  and  O_10
REMARK    3  A    between atoms: C_2  and  C_4
REMARK    4  A    between atoms: C_3  and  C_4
REMARK    5  A    between atoms: C_3  and  C_6
REMARK    6  A    between atoms: C_6  and  C_11
REMARK    7  A    between atoms: O_10  and  C_14
REMARK    8  A    between atoms: N_12  and  C_17
REMARK    9  A    between atoms: N_12  and  C_20
REMARK   10  A    between atoms: N_12  and  C_21
REMARK   11  A    between atoms: C_14  and  C_17
REMARK                            x       y       z     vdW  Elec       q    Type
REMARK                         _______ _______ _______ _____ _____    ______ ____
ROOT
ATOM      1  C   UNL     1     143.605 108.979 160.304  0.00  0.00    +0.000 C 
ENDROOT
BRANCH   1   2
ATOM      2  C   UNL     1     144.158 108.599 160.579  0.00  0.00    +0.000 C 
ATOM      3  O   UNL     1     144.064 107.910 160.693  0.00  0.00    +0.000 OA
BRANCH   2   4
ATOM      4  O   UNL     1     144.755 108.937 160.715  0.00  0.00    +0.000 OA
BRANCH   4   5
ATOM      5  C   UNL     1     145.330 108.555 160.938  0.00  0.00    +0.000 C 
BRANCH   5   6
ATOM      6  C   UNL     1     145.925 108.889 161.125  0.00  0.00    +0.000 C 
BRANCH   6   7
ATOM      7  N   UNL     1     146.548 108.519 161.174  0.00  0.00    +0.000 NA
BRANCH   7   8
ATOM      8  C   UNL     1     147.059 108.639 160.697  0.00  0.00    +0.000 C 
ATOM      9  C   UNL     1     147.514 109.197 160.782  0.00  0.00    +0.000 C 
ENDBRANCH   7   8
BRANCH   7  10
ATOM     10  C   UNL     1     146.627 108.046 161.703  0.00  0.00    +0.000 C 
ATOM     11  C   UNL     1     147.228 107.640 161.747  0.00  0.00    +0.000 C 
ENDBRANCH   7  10
ENDBRANCH   6   7
ENDBRANCH   5   6
ENDBRANCH   4   5
ENDBRANCH   2   4
ENDBRANCH   1   2
BRANCH   1  12
ATOM     12  C   UNL     1     143.407 109.597 160.596  0.00  0.00    +0.000 C 
BRANCH  12  13
ATOM     13  C   UNL     1     142.838 109.639 161.050  0.00  0.00    +0.000 A 
ATOM     14  C   UNL     1     142.575 110.309 161.255  0.00  0.00    +0.000 A 
ATOM     15  C   UNL     1     141.998 110.351 161.713  0.00  0.00    +0.000 A 
ATOM     16  C   UNL     1     142.521 109.015 161.305  0.00  0.00    +0.000 A 
ATOM     17  C   UNL     1     141.944 109.057 161.764  0.00  0.00    +0.000 A 
ATOM     18  C   UNL     1     142.891 110.929 160.999  0.00  0.00    +0.000 A 
ATOM     19  C   UNL     1     141.685 109.722 161.966  0.00  0.00    +0.000 A 
ATOM     20  C   UNL     1     141.738 111.012 161.916  0.00  0.00    +0.000 A 
ATOM     21  C   UNL     1     142.628 111.595 161.204  0.00  0.00    +0.000 A 
ATOM     22  C   UNL     1     142.051 111.637 161.663  0.00  0.00    +0.000 A 
ENDBRANCH  12  13
ENDBRANCH   1  12
BRANCH   1  23
ATOM     23  C   UNL     1     143.243 108.733 159.727  0.00  0.00    +0.000 C 
BRANCH  23  25
ATOM     24  O   UNL     1     143.788 109.510 158.821  0.00  0.00    +0.000 OA
ATOM     25  C   UNL     1     143.498 108.869 159.064  0.00  0.00    +0.000 C 
ATOM     26  C   UNL     1     143.976 109.415 158.125  0.00  0.00    +0.000 C 
ATOM     27  C   UNL     1     143.512 108.401 158.524  0.00  0.00    +0.000 C 
ATOM     28  C   UNL     1     143.802 108.724 157.946  0.00  0.00    +0.000 C 
ENDBRANCH  23  25
ENDBRANCH   1  23
TORSDOF 11
ENDMDL
MODEL 16
REMARK VINA RESULT:      -7.4     20.603     22.387
REMARK  Name = 
REMARK  11 active torsions:
REMARK  status: ('A' for Active; 'I' for Inactive)
REMARK    1  A    between atoms: C_1  and  C_3
REMARK    2  A    between atoms: C_1  and  O_10
REMARK    3  A    between atoms: C_2  and  C_4
REMARK    4  A    between atoms: C_3  and  C_4
REMARK    5  A    between atoms: C_3  and  C_6
REMARK    6  A    between atoms: C_6  and  C_11
REMARK    7  A    between atoms: O_10  and  C_14
REMARK    8  A    between atoms: N_12  and  C_17
REMARK    9  A    between atoms: N_12  and  C_20
REMARK   10  A    between atoms: N_12  and  C_21
REMARK   11  A    between atoms: C_14  and  C_17
REMARK                            x       y       z     vdW  Elec       q    Type
REMARK                         _______ _______ _______ _____ _____    ______ ____
ROOT
ATOM      1  C   UNL     1     144.139 108.606 160.408  0.00  0.00    +0.000 C 
ENDROOT
BRANCH   1   2
ATOM      2  C   UNL     1     143.615 108.752 160.889  0.00  0.00    +0.000 C 
ATOM      3  O   UNL     1     143.285 108.210 161.194  0.00  0.00    +0.000 OA
BRANCH   2   4
ATOM      4  O   UNL     1     143.467 109.421 161.022  0.00  0.00    +0.000 OA
BRANCH   4   5
ATOM      5  C   UNL     1     142.882 109.577 161.421  0.00  0.00    +0.000 C 
BRANCH   5   6
ATOM      6  C   UNL     1     142.778 110.238 161.653  0.00  0.00    +0.000 C 
BRANCH   6   7
ATOM      7  N   UNL     1     142.119 110.444 161.877  0.00  0.00    +0.000 NA
BRANCH   7   8
ATOM      8  C   UNL     1     141.732 110.871 161.463  0.00  0.00    +0.000 C 
ATOM      9  C   UNL     1     141.884 111.579 161.427  0.00  0.00    +0.000 C 
ENDBRANCH   7   8
BRANCH   7  10
ATOM     10  C   UNL     1     141.879 110.210 162.508  0.00  0.00    +0.000 C 
ATOM     11  C   UNL     1     141.227 110.415 162.753  0.00  0.00    +0.000 C 
ENDBRANCH   7  10
ENDBRANCH   6   7
ENDBRANCH   5   6
ENDBRANCH   4   5
ENDBRANCH   2   4
ENDBRANCH   1   2
BRANCH   1  12
ATOM     12  C   UNL     1     144.021 108.159 159.866  0.00  0.00    +0.000 C 
BRANCH  12  13
ATOM     13  C   UNL     1     143.890 108.405 159.193  0.00  0.00    +0.000 A 
ATOM     14  C   UNL     1     143.684 107.926 158.656  0.00  0.00    +0.000 A 
ATOM     15  C   UNL     1     143.552 108.176 157.974  0.00  0.00    +0.000 A 
ATOM     16  C   UNL     1     143.962 109.132 159.043  0.00  0.00    +0.000 A 
ATOM     17  C   UNL     1     143.830 109.381 158.361  0.00  0.00    +0.000 A 
ATOM     18  C   UNL     1     143.614 107.204 158.807  0.00  0.00    +0.000 A 
ATOM     19  C   UNL     1     143.626 108.904 157.830  0.00  0.00    +0.000 A 
ATOM     20  C   UNL     1     143.349 107.702 157.444  0.00  0.00    +0.000 A 
ATOM     21  C   UNL     1     143.409 106.728 158.271  0.00  0.00    +0.000 A 
ATOM     22  C   UNL     1     143.276 106.978 157.589  0.00  0.00    +0.000 A 
ENDBRANCH  12  13
ENDBRANCH   1  12
BRANCH   1  23
ATOM     23  C   UNL     1     144.791 108.913 160.473  0.00  0.00    +0.000 C 
BRANCH  23  25
ATOM     24  O   UNL     1     145.272 107.890 161.138  0.00  0.00    +0.000 OA
ATOM     25  C   UNL     1     145.309 108.572 160.845  0.00  0.00    +0.000 C 
ATOM     26  C   UNL     1     145.907 107.757 161.465  0.00  0.00    +0.000 C 
ATOM     27  C   UNL     1     145.955 108.842 160.994  0.00  0.00    +0.000 C 
ATOM     28  C   UNL     1     146.328 108.352 161.373  0.00  0.00    +0.000 C 
ENDBRANCH  23  25
ENDBRANCH   1  23
TORSDOF 11
ENDMDL
MODEL 17
REMARK VINA RESULT:      -7.3     28.281     30.300
REMARK  Name = 
REMARK  11 active torsions:
REMARK  status: ('A' for Active; 'I' for Inactive)
REMARK    1  A    between atoms: C_1  and  C_3
REMARK    2  A    between atoms: C_1  and  O_10
REMARK    3  A    between atoms: C_2  and  C_4
REMARK    4  A    between atoms: C_3  and  C_4
REMARK    5  A    between atoms: C_3  and  C_6
REMARK    6  A    between atoms: C_6  and  C_11
REMARK    7  A    between atoms: O_10  and  C_14
REMARK    8  A    between atoms: N_12  and  C_17
REMARK    9  A    between atoms: N_12  and  C_20
REMARK   10  A    between atoms: N_12  and  C_21
REMARK   11  A    between atoms: C_14  and  C_17
REMARK                            x       y       z     vdW  Elec       q    Type
REMARK                         _______ _______ _______ _____ _____    ______ ____
ROOT
ATOM      1  C   UNL     1     134.031 108.807 169.686  0.00  0.00    +0.000 C 
ENDROOT
BRANCH   1   2
ATOM      2  C   UNL     1     133.699 108.162 169.688  0.00  0.00    +0.000 C 
ATOM      3  O   UNL     1     133.897 107.689 170.170  0.00  0.00    +0.000 OA
BRANCH   2   4
ATOM      4  O   UNL     1     133.202 108.046 169.211  0.00  0.00    +0.000 OA
BRANCH   4   5
ATOM      5  C   UNL     1     132.870 107.402 169.202  0.00  0.00    +0.000 C 
BRANCH   5   6
ATOM      6  C   UNL     1     132.325 107.290 168.765  0.00  0.00    +0.000 C 
BRANCH   6   7
ATOM      7  N   UNL     1     132.056 106.621 168.683  0.00  0.00    +0.000 NA
BRANCH   7   8
ATOM      8  C   UNL     1     132.415 106.150 168.292  0.00  0.00    +0.000 C 
ATOM      9  C   UNL     1     132.104 105.524 168.100  0.00  0.00    +0.000 C 
ENDBRANCH   7   8
BRANCH   7  10
ATOM     10  C   UNL     1     131.437 106.457 168.999  0.00  0.00    +0.000 C 
ATOM     11  C   UNL     1     130.808 106.695 168.723  0.00  0.00    +0.000 C 
ENDBRANCH   7  10
ENDBRANCH   6   7
ENDBRANCH   5   6
ENDBRANCH   4   5
ENDBRANCH   2   4
ENDBRANCH   1   2
BRANCH   1  12
ATOM     12  C   UNL     1     133.655 109.411 169.660  0.00  0.00    +0.000 C 
BRANCH  12  13
ATOM     13  C   UNL     1     133.544 109.816 170.256  0.00  0.00    +0.000 A 
ATOM     14  C   UNL     1     133.141 110.445 170.208  0.00  0.00    +0.000 A 
ATOM     15  C   UNL     1     133.030 110.855 170.812  0.00  0.00    +0.000 A 
ATOM     16  C   UNL     1     133.833 109.602 170.909  0.00  0.00    +0.000 A 
ATOM     17  C   UNL     1     133.722 110.012 171.512  0.00  0.00    +0.000 A 
ATOM     18  C   UNL     1     132.855 110.656 169.558  0.00  0.00    +0.000 A 
ATOM     19  C   UNL     1     133.321 110.635 171.462  0.00  0.00    +0.000 A 
ATOM     20  C   UNL     1     132.632 111.475 170.764  0.00  0.00    +0.000 A 
ATOM     21  C   UNL     1     132.454 111.282 169.512  0.00  0.00    +0.000 A 
ATOM     22  C   UNL     1     132.342 111.692 170.115  0.00  0.00    +0.000 A 
ENDBRANCH  12  13
ENDBRANCH   1  12
BRANCH   1  23
ATOM     23  C   UNL     1     134.754 108.846 169.711  0.00  0.00    +0.000 C 
BRANCH  23  25
ATOM     24  O   UNL     1     134.961 109.093 168.440  0.00  0.00    +0.000 OA
ATOM     25  C   UNL     1     135.134 108.794 169.098  0.00  0.00    +0.000 C 
ATOM     26  C   UNL     1     135.486 108.910 167.971  0.00  0.00    +0.000 C 
ATOM     27  C   UNL     1     135.751 108.439 169.025  0.00  0.00    +0.000 C 
ATOM     28  C   UNL     1     135.975 108.503 168.341  0.00  0.00    +0.000 C 
ENDBRANCH  23  25
ENDBRANCH   1  23
TORSDOF 11
ENDMDL
MODEL 18
REMARK VINA RESULT:      -7.3     59.670     61.663
REMARK  Name = 
REMARK  11 active torsions:
REMARK  status: ('A' for Active; 'I' for Inactive)
REMARK    1  A    between atoms: C_1  and  C_3
REMARK    2  A    between atoms: C_1  and  O_10
REMARK    3  A    between atoms: C_2  and  C_4
REMARK    4  A    between atoms: C_3  and  C_4
REMARK    5  A    between atoms: C_3  and  C_6
REMARK    6  A    between atoms: C_6  and  C_11
REMARK    7  A    between atoms: O_10  and  C_14
REMARK    8  A    between atoms: N_12  and  C_17
REMARK    9  A    between atoms: N_12  and  C_20
REMARK   10  A    between atoms: N_12  and  C_21
REMARK   11  A    between atoms: C_14  and  C_17
REMARK                            x       y       z     vdW  Elec       q    Type
REMARK                         _______ _______ _______ _____ _____    ______ ____
ROOT
ATOM      1  C   UNL     1     115.948 123.804 123.512  0.00  0.00    +0.000 C 
ENDROOT
BRANCH   1   2
ATOM      2  C   UNL     1     115.356 123.399 123.408  0.00  0.00    +0.000 C 
ATOM      3  O   UNL     1     115.263 123.104 122.776  0.00  0.00    +0.000 OA
BRANCH   2   4
ATOM      4  O   UNL     1     114.909 123.324 123.940  0.00  0.00    +0.000 OA
BRANCH   4   5
ATOM      5  C   UNL     1     114.282 122.981 123.824  0.00  0.00    +0.000 C 
BRANCH   5   6
ATOM      6  C   UNL     1     113.874 122.794 124.372  0.00  0.00    +0.000 C 
BRANCH   6   7
ATOM      7  N   UNL     1     113.188 122.585 124.259  0.00  0.00    +0.000 NA
BRANCH   7   8
ATOM      8  C   UNL     1     113.025 121.896 124.307  0.00  0.00    +0.000 C 
ATOM      9  C   UNL     1     112.963 121.581 124.957  0.00  0.00    +0.000 C 
ENDBRANCH   7   8
BRANCH   7  10
ATOM     10  C   UNL     1     112.698 123.080 124.104  0.00  0.00    +0.000 C 
ATOM     11  C   UNL     1     111.992 122.907 124.084  0.00  0.00    +0.000 C 
ENDBRANCH   7  10
ENDBRANCH   6   7
ENDBRANCH   5   6
ENDBRANCH   4   5
ENDBRANCH   2   4
ENDBRANCH   1   2
BRANCH   1  12
ATOM     12  C   UNL     1     116.123 124.319 123.052  0.00  0.00    +0.000 C 
BRANCH  12  13
ATOM     13  C   UNL     1     115.961 125.017 123.184  0.00  0.00    +0.000 A 
ATOM     14  C   UNL     1     116.107 125.536 122.666  0.00  0.00    +0.000 A 
ATOM     15  C   UNL     1     115.942 126.243 122.799  0.00  0.00    +0.000 A 
ATOM     16  C   UNL     1     115.650 125.209 123.834  0.00  0.00    +0.000 A 
ATOM     17  C   UNL     1     115.486 125.916 123.967  0.00  0.00    +0.000 A 
ATOM     18  C   UNL     1     116.416 125.343 122.020  0.00  0.00    +0.000 A 
ATOM     19  C   UNL     1     115.631 126.430 123.451  0.00  0.00    +0.000 A 
ATOM     20  C   UNL     1     116.087 126.756 122.287  0.00  0.00    +0.000 A 
ATOM     21  C   UNL     1     116.560 125.861 121.505  0.00  0.00    +0.000 A 
ATOM     22  C   UNL     1     116.396 126.568 121.638  0.00  0.00    +0.000 A 
ENDBRANCH  12  13
ENDBRANCH   1  12
BRANCH   1  23
ATOM     23  C   UNL     1     116.373 123.690 124.088  0.00  0.00    +0.000 C 
BRANCH  23  25
ATOM     24  O   UNL     1     117.131 122.843 123.433  0.00  0.00    +0.000 OA
ATOM     25  C   UNL     1     116.944 123.249 124.027  0.00  0.00    +0.000 C 
ATOM     26  C   UNL     1     117.739 122.480 123.600  0.00  0.00    +0.000 C 
ATOM     27  C   UNL     1     117.429 123.131 124.538  0.00  0.00    +0.000 C 
ATOM     28  C   UNL     1     117.919 122.663 124.288  0.00  0.00    +0.000 C 
ENDBRANCH  23  25
ENDBRANCH   1  23
TORSDOF 11
ENDMDL
MODEL 19
REMARK VINA RESULT:      -7.2     19.968     21.715
REMARK  Name = 
REMARK  11 active torsions:
REMARK  status: ('A' for Active; 'I' for Inactive)
REMARK    1  A    between atoms: C_1  and  C_3
REMARK    2  A    between atoms: C_1  and  O_10
REMARK    3  A    between atoms: C_2  and  C_4
REMARK    4  A    between atoms: C_3  and  C_4
REMARK    5  A    between atoms: C_3  and  C_6
REMARK    6  A    between atoms: C_6  and  C_11
REMARK    7  A    between atoms: O_10  and  C_14
REMARK    8  A    between atoms: N_12  and  C_17
REMARK    9  A    between atoms: N_12  and  C_20
REMARK   10  A    between atoms: N_12  and  C_21
REMARK   11  A    between atoms: C_14  and  C_17
REMARK                            x       y       z     vdW  Elec       q    Type
REMARK                         _______ _______ _______ _____ _____    ______ ____
ROOT
ATOM      1  C   UNL     1     144.145 108.565 160.323  0.00  0.00    +0.000 C 
ENDROOT
BRANCH   1   2
ATOM      2  C   UNL     1     143.606 108.861 160.707  0.00  0.00    +0.000 C 
ATOM      3  O   UNL     1     143.053 108.455 160.870  0.00  0.00    +0.000 OA
BRANCH   2   4
ATOM      4  O   UNL     1     143.663 109.531 160.895  0.00  0.00    +0.000 OA
BRANCH   4   5
ATOM      5  C   UNL     1     143.110 109.845 161.244  0.00  0.00    +0.000 C 
BRANCH   5   6
ATOM      6  C   UNL     1     143.188 110.491 161.523  0.00  0.00    +0.000 C 
BRANCH   6   7
ATOM      7  N   UNL     1     142.606 110.865 161.740  0.00  0.00    +0.000 NA
BRANCH   7   8
ATOM      8  C   UNL     1     142.441 110.878 162.430  0.00  0.00    +0.000 C 
ATOM      9  C   UNL     1     142.772 111.345 162.875  0.00  0.00    +0.000 C 
ENDBRANCH   7   8
BRANCH   7  10
ATOM     10  C   UNL     1     142.216 111.211 161.252  0.00  0.00    +0.000 C 
ATOM     11  C   UNL     1     141.702 111.682 161.457  0.00  0.00    +0.000 C 
ENDBRANCH   7  10
ENDBRANCH   6   7
ENDBRANCH   5   6
ENDBRANCH   4   5
ENDBRANCH   2   4
ENDBRANCH   1   2
BRANCH   1  12
ATOM     12  C   UNL     1     144.824 108.655 160.520  0.00  0.00    +0.000 C 
BRANCH  12  13
ATOM     13  C   UNL     1     145.188 108.134 160.877  0.00  0.00    +0.000 A 
ATOM     14  C   UNL     1     145.912 108.231 161.038  0.00  0.00    +0.000 A 
ATOM     15  C   UNL     1     146.281 107.704 161.399  0.00  0.00    +0.000 A 
ATOM     16  C   UNL     1     144.837 107.508 161.078  0.00  0.00    +0.000 A 
ATOM     17  C   UNL     1     145.206 106.981 161.440  0.00  0.00    +0.000 A 
ATOM     18  C   UNL     1     146.259 108.855 160.836  0.00  0.00    +0.000 A 
ATOM     19  C   UNL     1     145.924 107.080 161.599  0.00  0.00    +0.000 A 
ATOM     20  C   UNL     1     146.996 107.801 161.558  0.00  0.00    +0.000 A 
ATOM     21  C   UNL     1     146.980 108.950 160.998  0.00  0.00    +0.000 A 
ATOM     22  C   UNL     1     147.349 108.423 161.359  0.00  0.00    +0.000 A 
ENDBRANCH  12  13
ENDBRANCH   1  12
BRANCH   1  23
ATOM     23  C   UNL     1     144.001 108.173 159.732  0.00  0.00    +0.000 C 
BRANCH  23  25
ATOM     24  O   UNL     1     144.314 109.100 158.858  0.00  0.00    +0.000 OA
ATOM     25  C   UNL     1     143.934 108.505 159.092  0.00  0.00    +0.000 C 
ATOM     26  C   UNL     1     144.082 109.258 158.187  0.00  0.00    +0.000 C 
ATOM     27  C   UNL     1     143.484 108.311 158.572  0.00  0.00    +0.000 C 
ATOM     28  C   UNL     1     143.565 108.764 158.015  0.00  0.00    +0.000 C 
ENDBRANCH  23  25
ENDBRANCH   1  23
TORSDOF 11
ENDMDL
MODEL 20
REMARK VINA RESULT:      -7.2     61.577     63.600
REMARK  Name = 
REMARK  11 active torsions:
REMARK  status: ('A' for Active; 'I' for Inactive)
REMARK    1  A    between atoms: C_1  and  C_3
REMARK    2  A    between atoms: C_1  and  O_10
REMARK    3  A    between atoms: C_2  and  C_4
REMARK    4  A    between atoms: C_3  and  C_4
REMARK    5  A    between atoms: C_3  and  C_6
REMARK    6  A    between atoms: C_6  and  C_11
REMARK    7  A    between atoms: O_10  and  C_14
REMARK    8  A    between atoms: N_12  and  C_17
REMARK    9  A    between atoms: N_12  and  C_20
REMARK   10  A    between atoms: N_12  and  C_21
REMARK   11  A    between atoms: C_14  and  C_17
REMARK                            x       y       z     vdW  Elec       q    Type
REMARK                         _______ _______ _______ _____ _____    ______ ____
ROOT
ATOM      1  C   UNL     1     153.707 145.482 106.659  0.00  0.00    +0.000 C 
ENDROOT
BRANCH   1   2
ATOM      2  C   UNL     1     153.450 145.976 107.123  0.00  0.00    +0.000 C 
ATOM      3  O   UNL     1     153.034 146.485 106.869  0.00  0.00    +0.000 OA
BRANCH   2   4
ATOM      4  O   UNL     1     153.627 145.920 107.796  0.00  0.00    +0.000 OA
BRANCH   4   5
ATOM      5  C   UNL     1     153.353 146.395 108.271  0.00  0.00    +0.000 C 
BRANCH   5   6
ATOM      6  C   UNL     1     153.579 146.396 108.941  0.00  0.00    +0.000 C 
BRANCH   6   7
ATOM      7  N   UNL     1     153.237 146.799 109.439  0.00  0.00    +0.000 NA
BRANCH   7   8
ATOM      8  C   UNL     1     152.592 146.602 109.658  0.00  0.00    +0.000 C 
ATOM      9  C   UNL     1     152.284 146.930 110.227  0.00  0.00    +0.000 C 
ENDBRANCH   7   8
BRANCH   7  10
ATOM     10  C   UNL     1     153.561 147.382 109.693  0.00  0.00    +0.000 C 
ATOM     11  C   UNL     1     154.120 147.322 110.153  0.00  0.00    +0.000 C 
ENDBRANCH   7  10
ENDBRANCH   6   7
ENDBRANCH   5   6
ENDBRANCH   4   5
ENDBRANCH   2   4
ENDBRANCH   1   2
BRANCH   1  12
ATOM     12  C   UNL     1     154.400 145.317 106.650  0.00  0.00    +0.000 C 
BRANCH  12  13
ATOM     13  C   UNL     1     154.848 145.580 106.139  0.00  0.00    +0.000 A 
ATOM     14  C   UNL     1     155.573 145.398 106.151  0.00  0.00    +0.000 A 
ATOM     15  C   UNL     1     156.026 145.665 105.634  0.00  0.00    +0.000 A 
ATOM     16  C   UNL     1     154.580 146.029 105.608  0.00  0.00    +0.000 A 
ATOM     17  C   UNL     1     155.033 146.296 105.090  0.00  0.00    +0.000 A 
ATOM     18  C   UNL     1     155.838 144.952 106.681  0.00  0.00    +0.000 A 
ATOM     19  C   UNL     1     155.753 146.114 105.104  0.00  0.00    +0.000 A 
ATOM     20  C   UNL     1     156.743 145.485 105.646  0.00  0.00    +0.000 A 
ATOM     21  C   UNL     1     156.560 144.772 106.692  0.00  0.00    +0.000 A 
ATOM     22  C   UNL     1     157.013 145.039 106.174  0.00  0.00    +0.000 A 
ENDBRANCH  12  13
ENDBRANCH   1  12
BRANCH   1  23
ATOM     23  C   UNL     1     153.262 145.149 106.195  0.00  0.00    +0.000 C 
BRANCH  23  25
ATOM     24  O   UNL     1     153.195 143.963 106.753  0.00  0.00    +0.000 OA
ATOM     25  C   UNL     1     152.907 144.556 106.407  0.00  0.00    +0.000 C 
ATOM     26  C   UNL     1     152.654 143.492 106.867  0.00  0.00    +0.000 C 
ATOM     27  C   UNL     1     152.207 144.440 106.316  0.00  0.00    +0.000 C 
ATOM     28  C   UNL     1     152.042 143.794 106.594  0.00  0.00    +0.000 C 
ENDBRANCH  23  25
ENDBRANCH   1  23
TORSDOF 11
ENDMDL
