REMARK  Name = 
REMARK  7 active torsions:
REMARK  status: ('A' for Active; 'I' for Inactive)
REMARK    1  A    between atoms: C_1  and  C_2
REMARK    2  A    between atoms: N_17  and  C_19
REMARK    3  A    between atoms: C_19  and  C_22
REMARK    4  A    between atoms: C_22  and  C_25
REMARK    5  A    between atoms: C_25  and  N_26
REMARK    6  A    between atoms: N_26  and  C_29
REMARK    7  A    between atoms: C_29  and  C_31
REMARK                            x       y       z     vdW  Elec       q    Type
REMARK                         _______ _______ _______ _____ _____    ______ ____
ROOT
ATOM      1  C   UNL     1       2.400  -1.454   0.000  0.00  0.00    +0.000 A 
ATOM      2  N   UNL     1       1.554  -2.879   0.000  0.00  0.00    +0.000 NA
ATOM      3  C   UNL     1       2.400  -2.375   0.000  0.00  0.00    +0.000 A 
ATOM      4  C   UNL     1       1.554  -0.938   0.000  0.00  0.00    +0.000 A 
ATOM      5  C   UNL     1       0.725  -2.375   0.000  0.00  0.00    +0.000 A 
ATOM      6  C   UNL     1       0.725  -1.454   0.000  0.00  0.00    +0.000 A 
ENDROOT
BRANCH   1   7
ATOM      7  C   UNL     1       3.254  -0.992   0.000  0.00  0.00    +0.000 C 
ATOM      8  O   UNL     1       3.329   0.013   0.000  0.00  0.00    +0.000 OA
ATOM      9  O   UNL     1       3.979  -1.562   0.000  0.00  0.00    +0.000 OA
ENDBRANCH   1   7
TORSDOF 1
REMARK  Name = 
REMARK  7 active torsions:
REMARK  status: ('A' for Active; 'I' for Inactive)
REMARK    1  A    between atoms: C_1  and  C_2
REMARK    2  A    between atoms: N_17  and  C_19
REMARK    3  A    between atoms: C_19  and  C_22
REMARK    4  A    between atoms: C_22  and  C_25
REMARK    5  A    between atoms: C_25  and  N_26
REMARK    6  A    between atoms: N_26  and  C_29
REMARK    7  A    between atoms: C_29  and  C_31
REMARK                            x       y       z     vdW  Elec       q    Type
REMARK                         _______ _______ _______ _____ _____    ______ ____
ROOT
ATOM      1  C   UNL     1      -1.646  -0.338   0.000  0.00  0.00    +0.000 A 
ATOM      2  C   UNL     1      -1.646   0.646   0.000  0.00  0.00    +0.000 A 
ATOM      3  N   UNL     1      -2.500  -0.854   0.000  0.00  0.00    +0.000 N 
ATOM      4  N   UNL     1      -3.333   0.646   0.000  0.00  0.00    +0.000 N 
ATOM      5  C   UNL     1      -3.333  -0.367   0.000  0.00  0.00    +0.000 A 
ATOM      6  C   UNL     1      -2.500   1.133   0.000  0.00  0.00    +0.000 A 
ATOM      7  N   UNL     1      -0.725  -0.642   0.000  0.00  0.00    +0.000 NA
ATOM      8  N   UNL     1      -0.725   0.921   0.000  0.00  0.00    +0.000 N 
ATOM      9  C   UNL     1      -0.175   0.183   0.000  0.00  0.00    +0.000 A 
ATOM     10  O   UNL     1      -4.162  -0.917   0.000  0.00  0.00    +0.000 OA
ATOM     11  O   UNL     1      -2.487   2.112   0.000  0.00  0.00    +0.000 OA
ATOM     12  C   UNL     1      -2.487  -1.867   0.000  0.00  0.00    +0.000 C 
ATOM     13  C   UNL     1      -4.162   1.196   0.000  0.00  0.00    +0.000 C 
ENDROOT
BRANCH   8  14
ATOM     14  C   UNL     1      -0.421   1.871   0.000  0.00  0.00    +0.000 C 
BRANCH  14  15
ATOM     15  C   UNL     1       0.529   2.083   0.000  0.00  0.00    +0.000 C 
ATOM     16  O   UNL     1       0.829   2.971   0.000  0.00  0.00    +0.000 OA
BRANCH  15  17
ATOM     17  C   UNL     1       1.167   1.346   0.000  0.00  0.00    +0.000 C 
BRANCH  17  18
ATOM     18  N   UNL     1       2.054   1.533   0.000  0.00  0.00    +0.000 NA
ATOM     19  C   UNL     1       2.400   2.396   0.000  0.00  0.00    +0.000 C 
BRANCH  18  20
ATOM     20  C   UNL     1       2.675   0.796   0.000  0.00  0.00    +0.000 C 
BRANCH  20  22
ATOM     21  O   UNL     1       4.237   0.183   0.000  0.00  0.00    +0.000 OA
ATOM     22  C   UNL     1       3.654   0.946   0.000  0.00  0.00    +0.000 C 
ENDBRANCH  20  22
ENDBRANCH  18  20
ENDBRANCH  17  18
ENDBRANCH  15  17
ENDBRANCH  14  15
ENDBRANCH   8  14
TORSDOF 6
