REMARK  Name = 
REMARK  4 active torsions:
REMARK  status: ('A' for Active; 'I' for Inactive)
REMARK    1  A    between atoms: C_1  and  C_2
REMARK    2  A    between atoms: C_2  and  C_3
REMARK    3  A    between atoms: C_8  and  C_11
REMARK    4  A    between atoms: C_11  and  C_13
REMARK                            x       y       z     vdW  Elec       q    Type
REMARK                         _______ _______ _______ _____ _____    ______ ____
ROOT
ATOM      1  C   UNL     1       2.829  -2.212   0.000  0.00  0.00    +0.000 A 
ATOM      2  C   UNL     1       2.212  -1.863   0.000  0.00  0.00    +0.000 A 
ATOM      3  C   UNL     1       2.842  -2.904   0.000  0.00  0.00    +0.000 A 
ATOM      4  C   UNL     1       1.617  -2.942   0.000  0.00  0.00    +0.000 A 
ATOM      5  C   UNL     1       2.242  -3.267   0.000  0.00  0.00    +0.000 A 
ATOM      6  C   UNL     1       1.604  -2.229   0.000  0.00  0.00    +0.000 A 
ENDROOT
BRANCH   1   7
ATOM      7  C   UNL     1       3.442  -1.829   0.000  0.00  0.00    +0.000 C 
ATOM      8  C   UNL     1       3.417  -1.117   0.000  0.00  0.00    +0.000 C 
BRANCH   7   9
ATOM      9  C   UNL     1       4.054  -2.167   0.000  0.00  0.00    +0.000 C 
ATOM     10  O   UNL     1       4.079  -2.879   0.000  0.00  0.00    +0.000 OA
ATOM     11  O   UNL     1       4.654  -1.788   0.000  0.00  0.00    +0.000 OA
ENDBRANCH   7   9
ENDBRANCH   1   7
BRANCH   4  12
ATOM     12  C   UNL     1       1.004  -3.304   0.000  0.00  0.00    +0.000 C 
BRANCH  12  13
ATOM     13  C   UNL     1       0.388  -2.967   0.000  0.00  0.00    +0.000 C 
ATOM     14  C   UNL     1      -0.225  -3.329   0.000  0.00  0.00    +0.000 C 
ATOM     15  C   UNL     1       0.375  -2.254   0.000  0.00  0.00    +0.000 C 
ENDBRANCH  12  13
ENDBRANCH   4  12
TORSDOF 4
