REMARK  Name = 
REMARK  7 active torsions:
REMARK  status: ('A' for Active; 'I' for Inactive)
REMARK    1  A    between atoms: C_3  and  O_7
REMARK    2  A    between atoms: C_4  and  O_7
REMARK    3  A    between atoms: C_4  and  C_13
REMARK    4  A    between atoms: C_9  and  C_14
REMARK    5  A    between atoms: C_13  and  C_25
REMARK    6  A    between atoms: C_14  and  C_23
REMARK    7  A    between atoms: C_17  and  C_23
REMARK                            x       y       z     vdW  Elec       q    Type
REMARK                         _______ _______ _______ _____ _____    ______ ____
ROOT
ATOM      1  C   UNL     1       0.000   0.749   0.000  0.00  0.00    +0.000 C 
ATOM      2  C   UNL     1       0.000  -0.749   0.000  0.00  0.00    +0.000 C 
ATOM      3  C   UNL     1       1.296  -1.497   0.000  0.00  0.00    +0.000 C 
ATOM      4  C   UNL     1      -1.296   1.497   0.000  0.00  0.00    +0.000 C 
ATOM      5  C   UNL     1       1.296   1.497   0.000  0.00  0.00    +0.000 C 
ATOM      6  C   UNL     1      -1.296  -1.497   0.000  0.00  0.00    +0.000 C 
ATOM      7  C   UNL     1      -2.611   0.749   0.000  0.00  0.00    +0.000 C 
ATOM      8  C   UNL     1       2.593  -0.749   0.000  0.00  0.00    +0.000 C 
ATOM      9  C   UNL     1      -2.611  -0.749   0.000  0.00  0.00    +0.000 C 
ATOM     10  C   UNL     1       2.593   0.749   0.000  0.00  0.00    +0.000 C 
ATOM     11  C   UNL     1      -3.649  -1.352   0.000  0.00  0.00    +0.000 C 
ATOM     12  C   UNL     1       3.632   1.349   0.000  0.00  0.00    +0.000 C 
ENDROOT
BRANCH   3  13
ATOM     13  O   UNL     1       1.293  -2.998   0.000  0.00  0.00    +0.000 OA
BRANCH  13  14
ATOM     14  C   UNL     1       2.591  -3.752   0.000  0.00  0.00    +0.000 C 
ATOM     15  O   UNL     1       3.458  -3.254   0.000  0.00  0.00    +0.000 OA
BRANCH  14  16
ATOM     16  C   UNL     1       2.588  -5.253   0.000  0.00  0.00    +0.000 C 
ATOM     17  C   UNL     1       2.585  -6.453   0.000  0.00  0.00    +0.000 C 
ATOM     18  C   UNL     1       1.721  -5.751   0.000  0.00  0.00    +0.000 C 
BRANCH  16  19
ATOM     19  C   UNL     1       3.886  -6.007   0.000  0.00  0.00    +0.000 C 
ATOM     20  C   UNL     1       3.884  -7.007   0.000  0.00  0.00    +0.000 C 
ENDBRANCH  16  19
ENDBRANCH  14  16
ENDBRANCH  13  14
ENDBRANCH   3  13
BRANCH   6  21
ATOM     21  C   UNL     1      -1.284  -2.998   0.000  0.00  0.00    +0.000 C 
BRANCH  21  22
ATOM     22  C   UNL     1      -2.578  -3.760   0.000  0.00  0.00    +0.000 C 
BRANCH  22  26
ATOM     23  C   UNL     1      -1.245  -7.497   0.000  0.00  0.00    +0.000 C 
ATOM     24  O   UNL     1      -1.260  -5.997   0.000  0.00  0.00    +0.000 OA
ATOM     25  C   UNL     1      -2.536  -8.260   0.000  0.00  0.00    +0.000 C 
ATOM     26  C   UNL     1      -2.566  -5.260   0.000  0.00  0.00    +0.000 C 
ATOM     27  C   UNL     1      -3.843  -7.523   0.000  0.00  0.00    +0.000 C 
ATOM     28  O   UNL     1      -0.200  -8.087   0.000  0.00  0.00    +0.000 OA
ATOM     29  C   UNL     1      -3.857  -6.023   0.000  0.00  0.00    +0.000 C 
ATOM     30  O   UNL     1      -4.876  -8.133   0.000  0.00  0.00    +0.000 OA
ENDBRANCH  22  26
ENDBRANCH  21  22
ENDBRANCH   6  21
TORSDOF 7
