
     RDKit          2D

 24 26  0  0  0  0  0  0  0  0999 V2000
   -5.9402    2.7552    0.0000 C   0  0  0  0  0  0  0  0  0  0  0  0
   -5.3882    2.1421    0.0000 N   0  0  0  0  0  0  0  0  0  0  0  0
   -4.5812    2.3136    0.0000 C   0  0  0  0  0  0  0  0  0  0  0  0
   -4.0291    1.7005    0.0000 C   0  0  0  0  0  0  0  0  0  0  0  0
   -3.2755    2.0361    0.0000 N   0  0  0  0  0  0  0  0  0  0  0  0
   -2.5610    1.6236    0.0000 C   0  0  0  0  0  0  0  0  0  0  0  0
   -1.8465    2.0361    0.0000 C   0  0  0  0  0  0  0  0  0  0  0  0
   -1.1321    1.6236    0.0000 O   0  0  0  0  0  0  0  0  0  0  0  0
   -0.4176    2.0361    0.0000 C   0  0  0  0  0  0  0  0  0  0  0  0
   -0.4176    2.8611    0.0000 O   0  0  0  0  0  0  0  0  0  0  0  0
    0.2969    1.6236    0.0000 C   0  0  0  0  0  0  0  0  0  0  0  0
    1.0114    2.0361    0.0000 C   0  0  0  0  0  0  0  0  0  0  0  0
    1.7258    1.6236    0.0000 C   0  0  0  0  0  0  0  0  0  0  0  0
    1.7258    0.7986    0.0000 C   0  0  0  0  0  0  0  0  0  0  0  0
    1.0114    0.3861    0.0000 N   0  0  0  0  0  0  0  0  0  0  0  0
    0.2969    0.7986    0.0000 C   0  0  0  0  0  0  0  0  0  0  0  0
   -3.3617    2.8566    0.0000 C   0  0  0  0  0  0  0  0  0  0  0  0
   -4.1687    3.0281    0.0000 N   0  0  0  0  0  0  0  0  0  0  0  0
   -4.2841    0.9159    0.0000 C   0  0  0  0  0  0  0  0  0  0  0  0
   -3.7321    0.3028    0.0000 O   0  0  0  0  0  0  0  0  0  0  0  0
   -5.0911    0.7444    0.0000 N   0  0  0  0  0  0  0  0  0  0  0  0
   -5.3460   -0.0402    0.0000 C   0  0  0  0  0  0  0  0  0  0  0  0
   -5.6431    1.3575    0.0000 C   0  0  0  0  0  0  0  0  0  0  0  0
   -6.4501    1.1859    0.0000 O   0  0  0  0  0  0  0  0  0  0  0  0
  1  2  1  0
  2  3  1  0
  3  4  2  0
  4  5  1  0
  5  6  1  0
  6  7  1  0
  7  8  1  0
  8  9  1  0
  9 10  2  0
  9 11  1  0
 11 12  2  0
 12 13  1  0
 13 14  2  0
 14 15  1  0
 15 16  2  0
 11 16  1  0
  5 17  1  0
 17 18  2  0
  3 18  1  0
  4 19  1  0
 19 20  2  0
 19 21  1  0
 21 22  1  0
 21 23  1  0
  2 23  1  0
 23 24  2  0
M  END


> <chembl_id>
CHEMBL3707239

> <chembl_pref_name>
ETOFYLLINE NICOTINATE
