REMARK  Name = 
REMARK  7 active torsions:
REMARK  status: ('A' for Active; 'I' for Inactive)
REMARK    1  A    between atoms: C_6  and  C_7
REMARK    2  A    between atoms: C_8  and  O_31
REMARK    3  A    between atoms: C_9  and  O_32
REMARK    4  A    between atoms: C_10  and  O_31
REMARK    5  A    between atoms: C_11  and  O_32
REMARK    6  A    between atoms: C_12  and  O_39
REMARK    7  A    between atoms: O_39  and  C_43
REMARK                            x       y       z     vdW  Elec       q    Type
REMARK                         _______ _______ _______ _____ _____    ______ ____
ROOT
ATOM      1  C   UNL     1       2.967  -3.767   0.000  0.00  0.00    +0.000 C 
ATOM      2  C   UNL     1       4.383  -3.767   0.000  0.00  0.00    +0.000 C 
ATOM      3  O   UNL     1       4.029  -3.154   0.000  0.00  0.00    +0.000 OA
ATOM      4  C   UNL     1       4.029  -4.379   0.000  0.00  0.00    +0.000 C 
ATOM      5  C   UNL     1       3.325  -4.379   0.000  0.00  0.00    +0.000 C 
ATOM      6  C   UNL     1       3.325  -3.154   0.000  0.00  0.00    +0.000 C 
ATOM      7  O   UNL     1       2.971  -4.992   0.000  0.00  0.00    +0.000 OA
ATOM      8  C   UNL     1       2.971  -2.538   0.000  0.00  0.00    +0.000 C 
ENDROOT
BRANCH   1   9
ATOM      9  O   UNL     1       2.258  -3.767   0.000  0.00  0.00    +0.000 OA
BRANCH   9  11
ATOM     10  C   UNL     1       0.229  -4.129   0.000  0.00  0.00    +0.000 C 
ATOM     11  C   UNL     1       1.650  -4.129   0.000  0.00  0.00    +0.000 C 
ATOM     12  O   UNL     1       1.296  -3.517   0.000  0.00  0.00    +0.000 OA
ATOM     13  C   UNL     1       1.296  -4.742   0.000  0.00  0.00    +0.000 C 
ATOM     14  C   UNL     1       0.588  -4.742   0.000  0.00  0.00    +0.000 C 
ATOM     15  C   UNL     1       0.588  -3.517   0.000  0.00  0.00    +0.000 C 
ATOM     16  O   UNL     1       0.233  -5.354   0.000  0.00  0.00    +0.000 OA
ATOM     17  C   UNL     1       0.233  -2.904   0.000  0.00  0.00    +0.000 C 
BRANCH  10  18
ATOM     18  O   UNL     1      -0.475  -4.129   0.000  0.00  0.00    +0.000 OA
BRANCH  18  19
ATOM     19  C   UNL     1      -1.087  -4.492   0.000  0.00  0.00    +0.000 C 
ATOM     20  O   UNL     1      -1.438  -3.879   0.000  0.00  0.00    +0.000 OA
ATOM     21  C   UNL     1      -1.438  -5.104   0.000  0.00  0.00    +0.000 C 
ATOM     22  C   UNL     1      -2.504  -4.492   0.000  0.00  0.00    +0.000 C 
ATOM     23  C   UNL     1      -2.146  -5.104   0.000  0.00  0.00    +0.000 C 
ATOM     24  C   UNL     1      -2.146  -3.879   0.000  0.00  0.00    +0.000 C 
ATOM     25  O   UNL     1      -3.212  -4.492   0.000  0.00  0.00    +0.000 OA
ATOM     26  O   UNL     1      -2.500  -5.717   0.000  0.00  0.00    +0.000 OA
ATOM     27  C   UNL     1      -2.500  -3.263   0.000  0.00  0.00    +0.000 C 
ENDBRANCH  18  19
ENDBRANCH  10  18
ENDBRANCH   9  11
ENDBRANCH   1   9
BRANCH   2  28
ATOM     28  O   UNL     1       4.992  -3.404   0.000  0.00  0.00    +0.000 OA
BRANCH  28  44
ATOM     29  C   UNL     1       8.671  -2.000   0.000  0.00  0.00    +0.000 C 
ATOM     30  C   UNL     1       8.683  -1.292   0.000  0.00  0.00    +0.000 C 
ATOM     31  C   UNL     1       6.833  -2.346   0.000  0.00  0.00    +0.000 C 
ATOM     32  C   UNL     1       8.058  -2.354   0.000  0.00  0.00    +0.000 C 
ATOM     33  C   UNL     1       7.442  -1.992   0.000  0.00  0.00    +0.000 C 
ATOM     34  C   UNL     1       9.358  -1.083   0.000  0.00  0.00    +0.000 C 
ATOM     35  C   UNL     1       6.829  -3.054   0.000  0.00  0.00    +0.000 C 
ATOM     36  C   UNL     1       9.342  -2.229   0.000  0.00  0.00    +0.000 C 
ATOM     37  C   UNL     1       8.067  -0.929   0.000  0.00  0.00    +0.000 C 
ATOM     38  C   UNL     1       7.446  -1.279   0.000  0.00  0.00    +0.000 C 
ATOM     39  C   UNL     1       9.767  -1.663   0.000  0.00  0.00    +0.000 C 
ATOM     40  C   UNL     1       6.221  -1.992   0.000  0.00  0.00    +0.000 C 
ATOM     41  C   UNL     1       8.054  -3.058   0.000  0.00  0.00    +0.000 C 
ATOM     42  C   UNL     1       6.221  -3.408   0.000  0.00  0.00    +0.000 C 
ATOM     43  C   UNL     1       7.438  -3.408   0.000  0.00  0.00    +0.000 C 
ATOM     44  C   UNL     1       5.608  -3.054   0.000  0.00  0.00    +0.000 C 
ATOM     45  O   UNL     1       8.667  -2.708   0.000  0.00  0.00    +0.000 OA
ATOM     46  C   UNL     1       5.608  -2.346   0.000  0.00  0.00    +0.000 C 
ATOM     47  C   UNL     1       8.679  -0.583   0.000  0.00  0.00    +0.000 C 
ATOM     48  C   UNL     1       6.825  -1.637   0.000  0.00  0.00    +0.000 C 
BRANCH  34  49
ATOM     49  C   UNL     1       9.588  -0.417   0.000  0.00  0.00    +0.000 C 
ATOM     50  C   UNL     1       9.179   0.163   0.000  0.00  0.00    +0.000 C 
ATOM     51  C   UNL     1       9.604   0.729   0.000  0.00  0.00    +0.000 C 
ATOM     52  O   UNL     1      10.275   0.500   0.000  0.00  0.00    +0.000 OA
ATOM     53  C   UNL     1      10.262  -0.208   0.000  0.00  0.00    +0.000 C 
ATOM     54  O   UNL     1       9.396   1.408   0.000  0.00  0.00    +0.000 OA
ENDBRANCH  34  49
ENDBRANCH  28  44
ENDBRANCH   2  28
TORSDOF 7
