
     RDKit          2D

 21 22  0  0  0  0  0  0  0  0999 V2000
    1.3292   -2.5500    0.0000 C   0  0  0  0  0  0  0  0  0  0  0  0
    2.0042   -2.3667    0.0000 C   0  0  0  0  0  0  0  0  0  0  0  0
    4.1167   -4.2292    0.0000 N   0  0  0  0  0  0  0  0  0  0  0  0
    1.9792   -3.0750    0.0000 O   0  0  0  0  0  0  0  0  0  0  0  0
    2.1917   -1.6875    0.0000 C   0  0  0  0  0  0  0  0  0  0  0  0
    3.0292   -3.6417    0.0000 C   0  0  0  0  0  0  0  0  0  0  0  0
    3.4042   -4.2417    0.0000 C   0  0  0  0  0  0  0  0  0  0  0  0
    0.9000   -1.9875    0.0000 C   0  0  0  0  0  0  0  0  0  0  0  0
    1.1417   -3.2292    0.0000 C   0  0  0  0  0  0  0  0  0  0  0  0
    2.3167   -3.6625    0.0000 C   0  0  0  0  0  0  0  0  0  0  0  0
    4.4417   -3.6167    0.0000 C   0  0  0  0  0  0  0  0  0  0  0  0
    4.4667   -4.8292    0.0000 C   0  0  0  0  0  0  0  0  0  0  0  0
    2.8750   -1.5042    0.0000 C   0  0  0  0  0  0  0  0  0  0  0  0
    1.6917   -1.1875    0.0000 C   0  0  0  0  0  0  0  0  0  0  0  0
    0.5000   -3.5167    0.0000 C   0  0  0  0  0  0  0  0  0  0  0  0
    0.2000   -1.9542    0.0000 C   0  0  0  0  0  0  0  0  0  0  0  0
    1.8625   -0.5042    0.0000 C   0  0  0  0  0  0  0  0  0  0  0  0
    3.0542   -0.8167    0.0000 C   0  0  0  0  0  0  0  0  0  0  0  0
    2.5542   -0.3250    0.0000 C   0  0  0  0  0  0  0  0  0  0  0  0
   -0.1208   -3.2000    0.0000 C   0  0  0  0  0  0  0  0  0  0  0  0
   -0.2500   -2.5000    0.0000 C   0  0  0  0  0  0  0  0  0  0  0  0
  2  1  1  0
  3  7  1  0
  4  1  1  0
  5  2  1  0
  6 10  1  0
  7  6  1  0
  8  1  1  0
  9  1  1  0
 10  4  1  0
 11  3  1  0
 12  3  1  0
 13  5  2  0
 14  5  1  0
 15  9  1  0
 16  8  1  0
 17 14  2  0
 18 13  1  0
 19 17  1  0
 20 15  1  0
 21 16  1  0
 21 20  1  0
 19 18  2  0
M  END


> <chembl_id>
CHEMBL2110767

> <chembl_pref_name>
BENCYCLANE
