
     RDKit          2D

 15 15  0  0  0  0  0  0  0  0999 V2000
    9.5942  -13.8001    0.0000 C   0  0  0  0  0  0  0  0  0  0  0  0
    9.5955  -12.9725    0.0000 C   0  0  0  0  0  0  0  0  0  0  0  0
    8.8826  -12.5595    0.0000 C   0  0  0  0  0  0  0  0  0  0  0  0
    8.1632  -12.9730    0.0000 C   0  0  0  0  0  0  0  0  0  0  0  0
    8.1664  -13.8040    0.0000 C   0  0  0  0  0  0  0  0  0  0  0  0
    8.8845  -14.2128    0.0000 C   0  0  0  0  0  0  0  0  0  0  0  0
   10.3076  -12.5671    0.0000 C   0  0  0  0  0  0  0  0  0  0  0  0
   11.0195  -12.9840    0.0000 N   0  0  0  0  0  0  0  0  0  0  0  0
   11.7364  -12.5759    0.0000 N   0  0  0  0  0  0  0  0  0  0  0  0
    8.8839  -11.7346    0.0000 Cl  0  0  0  0  0  0  0  0  0  0  0  0
   10.3090  -14.2119    0.0000 Cl  0  0  0  0  0  0  0  0  0  0  0  0
   12.4484  -12.9928    0.0000 C   0  0  0  0  0  0  0  0  0  0  0  0
   13.1654  -12.5846    0.0000 N   0  0  0  0  0  0  0  0  0  0  0  0
   12.4433  -13.8177    0.0000 N   0  0  0  0  0  0  0  0  0  0  0  0
   13.8773  -13.0015    0.0000 O   0  0  0  0  0  0  0  0  0  0  0  0
  3  4  2  0
  7  8  2  0
  8  9  1  0
  4  5  1  0
  3 10  1  0
  2  3  1  0
  1 11  1  0
  5  6  2  0
  9 12  1  0
  6  1  1  0
 12 13  1  0
  1  2  2  0
 12 14  2  0
  2  7  1  0
 13 15  1  0
M  END


> <chembl_id>
CHEMBL461343

> <chembl_pref_name>
GUANOXABENZ
