REMARK  Name = 
REMARK  3 active torsions:
REMARK  status: ('A' for Active; 'I' for Inactive)
REMARK    1  A    between atoms: C_1  and  C_2
REMARK    2  A    between atoms: C_1  and  C_3
REMARK    3  A    between atoms: C_3  and  C_6
REMARK                            x       y       z     vdW  Elec       q    Type
REMARK                         _______ _______ _______ _____ _____    ______ ____
ROOT
ATOM      1  C   UNL     1       4.062  -6.879   0.000  0.00  0.00    +0.000 C 
ENDROOT
BRANCH   1   2
ATOM      2  C   UNL     1       3.442  -7.229   0.000  0.00  0.00    +0.000 A 
ATOM      3  C   UNL     1       2.217  -7.942   0.000  0.00  0.00    +0.000 A 
ATOM      4  C   UNL     1       3.442  -7.942   0.000  0.00  0.00    +0.000 A 
ATOM      5  C   UNL     1       2.829  -6.879   0.000  0.00  0.00    +0.000 A 
ATOM      6  C   UNL     1       2.829  -8.292   0.000  0.00  0.00    +0.000 A 
ATOM      7  C   UNL     1       2.217  -7.229   0.000  0.00  0.00    +0.000 A 
ATOM      8  O   UNL     1       1.604  -8.292   0.000  0.00  0.00    +0.000 OA
ENDBRANCH   1   2
BRANCH   1   9
ATOM      9  C   UNL     1       4.675  -7.237   0.000  0.00  0.00    +0.000 C 
ATOM     10  N   UNL     1       5.029  -7.854   0.000  0.00  0.00    +0.000 NA
ATOM     11  C   UNL     1       4.317  -7.854   0.000  0.00  0.00    +0.000 C 
BRANCH   9  12
ATOM     12  C   UNL     1       5.287  -6.879   0.000  0.00  0.00    +0.000 C 
ATOM     13  O   UNL     1       5.287  -6.175   0.000  0.00  0.00    +0.000 OA
ATOM     14  O   UNL     1       5.904  -7.237   0.000  0.00  0.00    +0.000 OA
ENDBRANCH   9  12
ENDBRANCH   1   9
TORSDOF 3
