
     RDKit          2D

 46 50  0  0  0  0  0  0  0  0999 V2000
   -5.3239    0.0926    0.0000 O   0  0  0  0  0  0  0  0  0  0  0  0
   -4.6094   -0.3199    0.0000 C   0  0  0  0  0  0  0  0  0  0  0  0
   -3.8949    0.0926    0.0000 C   0  0  0  0  0  0  0  0  0  0  0  0
   -3.1805   -0.3199    0.0000 O   0  0  0  0  0  0  0  0  0  0  0  0
   -2.4660    0.0926    0.0000 C   0  0  0  0  0  0  0  0  0  0  0  0
   -2.4660    0.9176    0.0000 C   0  0  0  0  0  0  0  0  0  0  0  0
   -1.7515    1.3301    0.0000 C   0  0  0  0  0  0  0  0  0  0  0  0
   -1.0371    0.9176    0.0000 C   0  0  0  0  0  0  0  0  0  0  0  0
   -1.0371    0.0926    0.0000 C   0  0  0  0  0  0  0  0  0  0  0  0
   -1.7515   -0.3199    0.0000 C   0  0  0  0  0  0  0  0  0  0  0  0
   -0.3226   -0.3199    0.0000 O   0  0  0  0  0  0  0  0  0  0  0  0
    0.3919    0.0926    0.0000 C   0  0  0  0  0  0  0  0  0  0  0  0
    0.3919    0.9176    0.0000 C   0  0  0  0  0  0  0  0  0  0  0  0
   -0.3226    1.3301    0.0000 C   0  0  0  0  0  0  0  0  0  0  0  0
    1.1064    1.3301    0.0000 O   0  0  0  0  0  0  0  0  0  0  0  0
   -0.3226    2.1551    0.0000 O   0  0  0  0  0  0  0  0  0  0  0  0
   -1.7515    2.1551    0.0000 O   0  0  0  0  0  0  0  0  0  0  0  0
    1.1064    2.1551    0.0000 C   0  0  0  0  0  0  0  0  0  0  0  0
    0.3919    2.5676    0.0000 O   0  0  0  0  0  0  0  0  0  0  0  0
    0.3919    3.3926    0.0000 C   0  0  0  0  0  0  0  0  0  0  0  0
    1.1064    3.8051    0.0000 C   0  0  0  0  0  0  0  0  0  0  0  0
    1.8208    3.3926    0.0000 C   0  0  0  0  0  0  0  0  0  0  0  0
    1.8208    2.5676    0.0000 C   0  0  0  0  0  0  0  0  0  0  0  0
   -0.3226    3.8051    0.0000 C   0  0  0  0  0  0  0  0  0  0  0  0
   -1.0371    3.3926    0.0000 O   0  0  0  0  0  0  0  0  0  0  0  0
   -1.7515    3.8051    0.0000 C   0  0  0  0  0  0  0  0  0  0  0  0
   -2.4660    3.3926    0.0000 O   0  0  0  0  0  0  0  0  0  0  0  0
   -3.1805    3.8051    0.0000 C   0  0  0  0  0  0  0  0  0  0  0  0
   -3.1805    4.6301    0.0000 C   0  0  0  0  0  0  0  0  0  0  0  0
   -2.4660    5.0426    0.0000 C   0  0  0  0  0  0  0  0  0  0  0  0
   -1.7515    4.6301    0.0000 C   0  0  0  0  0  0  0  0  0  0  0  0
   -3.8949    3.3926    0.0000 C   0  0  0  0  0  0  0  0  0  0  0  0
   -3.8949    5.0426    0.0000 O   0  0  0  0  0  0  0  0  0  0  0  0
   -2.4660    5.8676    0.0000 O   0  0  0  0  0  0  0  0  0  0  0  0
   -1.0371    5.0426    0.0000 O   0  0  0  0  0  0  0  0  0  0  0  0
    1.1064    4.6301    0.0000 O   0  0  0  0  0  0  0  0  0  0  0  0
    2.5353    3.8051    0.0000 O   0  0  0  0  0  0  0  0  0  0  0  0
    2.5353    2.1551    0.0000 O   0  0  0  0  0  0  0  0  0  0  0  0
    1.1064   -0.3199    0.0000 C   0  0  0  0  0  0  0  0  0  0  0  0
    1.1064   -1.1449    0.0000 C   0  0  0  0  0  0  0  0  0  0  0  0
    1.8208   -1.5574    0.0000 C   0  0  0  0  0  0  0  0  0  0  0  0
    2.5353   -1.1449    0.0000 C   0  0  0  0  0  0  0  0  0  0  0  0
    2.5353   -0.3199    0.0000 C   0  0  0  0  0  0  0  0  0  0  0  0
    1.8208    0.0926    0.0000 C   0  0  0  0  0  0  0  0  0  0  0  0
    3.2498   -1.5574    0.0000 O   0  0  0  0  0  0  0  0  0  0  0  0
    3.2498    0.0926    0.0000 O   0  0  0  0  0  0  0  0  0  0  0  0
  1  2  1  0
  2  3  1  0
  3  4  1  0
  4  5  1  0
  5  6  2  0
  5 10  1  0
  6  7  1  0
  7  8  2  0
  9 10  2  0
 14  8  1  0
  8  9  1  0
  9 11  1  0
 11 12  1  0
 12 13  2  0
 13 14  1  0
 13 15  1  0
 14 16  2  0
  7 17  1  0
 18 19  1  0
 19 20  1  0
 20 21  1  0
 21 22  1  0
 22 23  1  0
 23 18  1  0
 18 15  1  6
 20 24  1  6
 24 25  1  0
 26 25  1  6
 26 27  1  0
 31 26  1  0
 27 28  1  0
 28 29  1  0
 29 30  1  0
 30 31  1  0
 28 32  1  1
 29 33  1  6
 30 34  1  1
 31 35  1  1
 21 36  1  1
 22 37  1  6
 23 38  1  1
 12 39  1  0
 39 40  1  0
 39 44  2  0
 40 41  2  0
 41 42  1  0
 42 43  2  0
 43 44  1  0
 42 45  1  0
 43 46  1  0
M  END


> <chembl_id>
CHEMBL3527416

> <chembl_pref_name>
MONOXERUTIN
