REMARK  Name = 
REMARK  6 active torsions:
REMARK  status: ('A' for Active; 'I' for Inactive)
REMARK    1  A    between atoms: C_1  and  C_3
REMARK    2  A    between atoms: C_3  and  C_6
REMARK    3  A    between atoms: C_6  and  C_18
REMARK    4  A    between atoms: C_7  and  O_10
REMARK    5  A    between atoms: C_8  and  C_16
REMARK    6  A    between atoms: O_10  and  C_16
REMARK                            x       y       z     vdW  Elec       q    Type
REMARK                         _______ _______ _______ _____ _____    ______ ____
ROOT
ATOM      1  C   UNL     1       3.717  -4.475   0.000  0.00  0.00    +0.000 A 
ATOM      2  C   UNL     1       3.100  -4.817   0.000  0.00  0.00    +0.000 A 
ATOM      3  C   UNL     1       2.492  -4.467   0.000  0.00  0.00    +0.000 A 
ATOM      4  C   UNL     1       3.704  -3.763   0.000  0.00  0.00    +0.000 A 
ATOM      5  C   UNL     1       2.492  -3.754   0.000  0.00  0.00    +0.000 A 
ATOM      6  C   UNL     1       3.104  -3.404   0.000  0.00  0.00    +0.000 A 
ATOM      7 CL   UNL     1       3.092  -5.537   0.000  0.00  0.00    +0.000 Cl
ATOM      8 CL   UNL     1       1.867  -4.829   0.000  0.00  0.00    +0.000 Cl
ENDROOT
BRANCH   1   9
ATOM      9  C   UNL     1       4.329  -4.825   0.000  0.00  0.00    +0.000 C 
ATOM     10  O   UNL     1       4.329  -5.529   0.000  0.00  0.00    +0.000 OA
BRANCH   9  11
ATOM     11  C   UNL     1       4.942  -4.475   0.000  0.00  0.00    +0.000 C 
ATOM     12  C   UNL     1       4.942  -3.754   0.000  0.00  0.00    +0.000 C 
BRANCH  11  13
ATOM     13  C   UNL     1       5.567  -4.829   0.000  0.00  0.00    +0.000 C 
ATOM     14  C   UNL     1       6.188  -4.479   0.000  0.00  0.00    +0.000 C 
ENDBRANCH  11  13
ENDBRANCH   9  11
ENDBRANCH   1   9
BRANCH   5  15
ATOM     15  O   UNL     1       1.863  -3.400   0.000  0.00  0.00    +0.000 OA
BRANCH  15  16
ATOM     16  C   UNL     1       1.254  -3.763   0.000  0.00  0.00    +0.000 C 
BRANCH  16  17
ATOM     17  C   UNL     1       0.625  -3.413   0.000  0.00  0.00    +0.000 C 
ATOM     18  O   UNL     1       0.613  -2.692   0.000  0.00  0.00    +0.000 OA
ATOM     19  O   UNL     1       0.013  -3.779   0.000  0.00  0.00    +0.000 OA
ENDBRANCH  16  17
ENDBRANCH  15  16
ENDBRANCH   5  15
TORSDOF 6
