REMARK  Name = 
REMARK  6 active torsions:
REMARK  status: ('A' for Active; 'I' for Inactive)
REMARK    1  A    between atoms: C_7  and  O_9
REMARK    2  A    between atoms: O_9  and  C_10
REMARK    3  A    between atoms: C_10  and  C_11
REMARK    4  A    between atoms: C_17  and  C_18
REMARK    5  A    between atoms: C_18  and  O_20
REMARK    6  A    between atoms: O_20  and  C_21
REMARK                            x       y       z     vdW  Elec       q    Type
REMARK                         _______ _______ _______ _____ _____    ______ ____
ROOT
ATOM      1  O   HOH     1       0.707  -7.720   0.000  0.00  0.00    +0.000 OA
ENDROOT
TORSDOF 0
REMARK  Name = 
REMARK  6 active torsions:
REMARK  status: ('A' for Active; 'I' for Inactive)
REMARK    1  A    between atoms: C_7  and  O_9
REMARK    2  A    between atoms: O_9  and  C_10
REMARK    3  A    between atoms: C_10  and  C_11
REMARK    4  A    between atoms: C_17  and  C_18
REMARK    5  A    between atoms: C_18  and  O_20
REMARK    6  A    between atoms: O_20  and  C_21
REMARK                            x       y       z     vdW  Elec       q    Type
REMARK                         _______ _______ _______ _____ _____    ______ ____
ROOT
ATOM      1  C   UNL     1      -3.565  -9.517   0.000  0.00  0.00    +0.000 A 
ATOM      2  C   UNL     1      -4.280  -9.930   0.000  0.00  0.00    +0.000 A 
ATOM      3  C   UNL     1      -4.280 -10.755   0.000  0.00  0.00    +0.000 A 
ATOM      4  C   UNL     1      -3.565 -11.167   0.000  0.00  0.00    +0.000 A 
ATOM      5  C   UNL     1      -2.851 -10.755   0.000  0.00  0.00    +0.000 A 
ATOM      6  C   UNL     1      -2.851  -9.930   0.000  0.00  0.00    +0.000 A 
ATOM      7 CL   UNL     1      -4.994 -11.167   0.000  0.00  0.00    +0.000 Cl
ENDROOT
BRANCH   6   8
ATOM      8  O   UNL     1      -2.136  -9.517   0.000  0.00  0.00    +0.000 OA
BRANCH   8   9
ATOM      9  C   UNL     1      -1.422  -9.930   0.000  0.00  0.00    +0.000 C 
ATOM     10  C   UNL     1      -2.005 -10.513   0.000  0.00  0.00    +0.000 C 
ATOM     11  C   UNL     1      -0.838 -10.513   0.000  0.00  0.00    +0.000 C 
BRANCH   9  12
ATOM     12  C   UNL     1      -0.707  -9.517   0.000  0.00  0.00    +0.000 C 
ATOM     13  O   UNL     1       0.007  -9.930   0.000  0.00  0.00    +0.000 OA
ATOM     14  O   UNL     1      -0.707  -8.692   0.000  0.00  0.00    +0.000 OA
ENDBRANCH   9  12
ENDBRANCH   8   9
ENDBRANCH   6   8
TORSDOF 3
REMARK  Name = 
REMARK  6 active torsions:
REMARK  status: ('A' for Active; 'I' for Inactive)
REMARK    1  A    between atoms: C_7  and  O_9
REMARK    2  A    between atoms: O_9  and  C_10
REMARK    3  A    between atoms: C_10  and  C_11
REMARK    4  A    between atoms: C_17  and  C_18
REMARK    5  A    between atoms: C_18  and  O_20
REMARK    6  A    between atoms: O_20  and  C_21
REMARK                            x       y       z     vdW  Elec       q    Type
REMARK                         _______ _______ _______ _____ _____    ______ ____
ROOT
ATOM      1  O   UNL     1       3.580  -9.517   0.000  0.00  0.00    +0.000 OA
ENDROOT
BRANCH   1   2
ATOM      2  C   UNL     1       4.294  -9.930   0.000  0.00  0.00    +0.000 A 
ATOM      3  C   UNL     1       4.294 -10.755   0.000  0.00  0.00    +0.000 A 
ATOM      4  C   UNL     1       5.008 -11.167   0.000  0.00  0.00    +0.000 A 
ATOM      5  C   UNL     1       5.723 -10.755   0.000  0.00  0.00    +0.000 A 
ATOM      6  C   UNL     1       5.723  -9.929   0.000  0.00  0.00    +0.000 A 
ATOM      7  C   UNL     1       5.008  -9.517   0.000  0.00  0.00    +0.000 A 
ATOM      8 CL   UNL     1       6.437 -11.167   0.000  0.00  0.00    +0.000 Cl
ENDBRANCH   1   2
BRANCH   1   9
ATOM      9  C   UNL     1       2.865  -9.930   0.000  0.00  0.00    +0.000 C 
ATOM     10  C   UNL     1       2.282 -10.513   0.000  0.00  0.00    +0.000 C 
ATOM     11  C   UNL     1       3.448 -10.513   0.000  0.00  0.00    +0.000 C 
BRANCH   9  13
ATOM     12  O   UNL     1       1.436  -9.930   0.000  0.00  0.00    +0.000 OA
ATOM     13  C   UNL     1       2.151  -9.517   0.000  0.00  0.00    +0.000 C 
ATOM     14  O   UNL     1       2.151  -8.692   0.000  0.00  0.00    +0.000 OA
ENDBRANCH   9  13
ENDBRANCH   1   9
TORSDOF 3
REMARK  Name = 
REMARK  6 active torsions:
REMARK  status: ('A' for Active; 'I' for Inactive)
REMARK    1  A    between atoms: C_7  and  O_9
REMARK    2  A    between atoms: O_9  and  C_10
REMARK    3  A    between atoms: C_10  and  C_11
REMARK    4  A    between atoms: C_17  and  C_18
REMARK    5  A    between atoms: C_18  and  O_20
REMARK    6  A    between atoms: O_20  and  C_21
REMARK                            x       y       z     vdW  Elec       q    Type
REMARK                         _______ _______ _______ _____ _____    ______ ____
ROOT
ATOM      1 AL   UNL     1       0.678  -8.692   0.000  0.00  0.00    +0.000 Al
ENDROOT
TORSDOF 0
