REMARK  Name = 
REMARK  5 active torsions:
REMARK  status: ('A' for Active; 'I' for Inactive)
REMARK    1  A    between atoms: C_1  and  C_10
REMARK    2  A    between atoms: C_3  and  C_11
REMARK    3  A    between atoms: N_5  and  C_12
REMARK    4  A    between atoms: N_7  and  C_15
REMARK    5  A    between atoms: C_11  and  C_15
REMARK                            x       y       z     vdW  Elec       q    Type
REMARK                         _______ _______ _______ _____ _____    ______ ____
ROOT
ATOM      1  N   UNL     1      -1.137  -2.300   0.000  0.00  0.00    +0.000 NA
ATOM      2  C   UNL     1      -2.825  -0.604   0.000  0.00  0.00    +0.000 C 
ATOM      3  C   UNL     1      -3.096  -1.704   0.000  0.00  0.00    +0.000 C 
ATOM      4  C   UNL     1      -1.683  -0.287   0.000  0.00  0.00    +0.000 C 
ATOM      5  C   UNL     1      -2.271  -2.562   0.000  0.00  0.00    +0.000 C 
ATOM      6  C   UNL     1      -0.863  -1.137   0.000  0.00  0.00    +0.000 C 
ENDROOT
BRANCH   2   8
ATOM      7  C   UNL     1      -3.408   1.363   0.000  0.00  0.00    +0.000 C 
ATOM      8  N   UNL     1      -3.683   0.258   0.000  0.00  0.00    +0.000 NA
ATOM      9  O   UNL     1      -4.208   2.175   0.000  0.00  0.00    +0.000 OA
BRANCH   7  10
ATOM     10  C   UNL     1      -2.263   1.671   0.000  0.00  0.00    +0.000 A 
ATOM     11  C   UNL     1      -1.446   0.821   0.000  0.00  0.00    +0.000 A 
ATOM     12  C   UNL     1      -1.983   2.808   0.000  0.00  0.00    +0.000 A 
ATOM     13  C   UNL     1      -0.346   1.100   0.000  0.00  0.00    +0.000 A 
ATOM     14  C   UNL     1      -0.800   3.108   0.000  0.00  0.00    +0.000 A 
ATOM     15  C   UNL     1      -0.037   2.283   0.000  0.00  0.00    +0.000 A 
ENDBRANCH   7  10
ENDBRANCH   2   8
BRANCH   1  16
ATOM     16  C   UNL     1      -0.362  -3.100   0.000  0.00  0.00    +0.000 C 
BRANCH  16  17
ATOM     17  C   UNL     1       0.700  -2.867   0.000  0.00  0.00    +0.000 C 
BRANCH  17  19
ATOM     18  N   UNL     1       1.137   0.113   0.000  0.00  0.00    +0.000 NA
ATOM     19  C   UNL     1       1.154  -1.754   0.000  0.00  0.00    +0.000 A 
ATOM     20  C   UNL     1       0.454  -0.817   0.000  0.00  0.00    +0.000 A 
ATOM     21  C   UNL     1       2.254  -1.438   0.000  0.00  0.00    +0.000 A 
ATOM     22  C   UNL     1       2.254  -0.279   0.000  0.00  0.00    +0.000 A 
ATOM     23  C   UNL     1       3.292  -2.042   0.000  0.00  0.00    +0.000 A 
ATOM     24  C   UNL     1       3.317   0.333   0.000  0.00  0.00    +0.000 A 
ATOM     25  C   UNL     1       4.304  -1.429   0.000  0.00  0.00    +0.000 A 
ATOM     26  C   UNL     1       4.342  -0.237   0.000  0.00  0.00    +0.000 A 
ENDBRANCH  17  19
ENDBRANCH  16  17
ENDBRANCH   1  16
TORSDOF 5
