REMARK  Name = 
REMARK  8 active torsions:
REMARK  status: ('A' for Active; 'I' for Inactive)
REMARK    1  A    between atoms: O_3  and  C_23
REMARK    2  A    between atoms: O_3  and  C_26
REMARK    3  A    between atoms: N_6  and  C_14
REMARK    4  A    between atoms: N_7  and  C_22
REMARK    5  A    between atoms: N_7  and  C_24
REMARK    6  A    between atoms: N_7  and  C_25
REMARK    7  A    between atoms: C_12  and  C_19
REMARK    8  A    between atoms: C_19  and  C_22
REMARK                            x       y       z     vdW  Elec       q    Type
REMARK                         _______ _______ _______ _____ _____    ______ ____
ROOT
ATOM      1  S   UNL     1       3.438   3.853   0.000  0.00  0.00    +0.000 S 
ATOM      2  O   UNL     1       4.263   0.996   0.000  0.00  0.00    +0.000 OA
ATOM      3  N   UNL     1       4.263   2.425   0.000  0.00  0.00    +0.000 N 
ATOM      4  C   UNL     1       3.438   2.425   0.000  0.00  0.00    +0.000 A 
ATOM      5  C   UNL     1       4.675   3.139   0.000  0.00  0.00    +0.000 A 
ATOM      6  C   UNL     1       3.025   3.139   0.000  0.00  0.00    +0.000 A 
ATOM      7  C   UNL     1       4.263   3.853   0.000  0.00  0.00    +0.000 A 
ATOM      8  C   UNL     1       4.675   1.710   0.000  0.00  0.00    +0.000 C 
ATOM      9  C   UNL     1       3.025   1.710   0.000  0.00  0.00    +0.000 A 
ATOM     10  C   UNL     1       2.200   1.710   0.000  0.00  0.00    +0.000 A 
ATOM     11  C   UNL     1       2.200   3.139   0.000  0.00  0.00    +0.000 A 
ATOM     12  C   UNL     1       5.500   3.139   0.000  0.00  0.00    +0.000 A 
ATOM     13  C   UNL     1       4.675   4.568   0.000  0.00  0.00    +0.000 A 
ATOM     14  C   UNL     1       1.788   2.425   0.000  0.00  0.00    +0.000 A 
ATOM     15  C   UNL     1       5.913   3.853   0.000  0.00  0.00    +0.000 A 
ATOM     16  C   UNL     1       5.500   4.568   0.000  0.00  0.00    +0.000 A 
ENDROOT
BRANCH  10  18
ATOM     17  O   UNL     1       0.550   1.710   0.000  0.00  0.00    +0.000 OA
ATOM     18  N   UNL     1       1.788   0.996   0.000  0.00  0.00    +0.000 NA
ATOM     19  C   UNL     1       0.963   0.996   0.000  0.00  0.00    +0.000 C 
BRANCH  19  20
ATOM     20  O   UNL     1       0.550   0.281   0.000  0.00  0.00    +0.000 OA
BRANCH  20  21
ATOM     21  C   UNL     1      -0.275   0.281   0.000  0.00  0.00    +0.000 C 
ATOM     22  C   UNL     1      -0.687  -0.433   0.000  0.00  0.00    +0.000 C 
ENDBRANCH  20  21
ENDBRANCH  19  20
ENDBRANCH  10  18
BRANCH   8  23
ATOM     23  C   UNL     1       5.500   1.710   0.000  0.00  0.00    +0.000 C 
BRANCH  23  24
ATOM     24  C   UNL     1       5.913   0.996   0.000  0.00  0.00    +0.000 C 
BRANCH  24  25
ATOM     25  N   UNL     1       6.738   0.996   0.000  0.00  0.00    +0.000 NA
BRANCH  25  26
ATOM     26  C   UNL     1       7.150   0.281   0.000  0.00  0.00    +0.000 C 
ATOM     27  C   UNL     1       7.975   0.281   0.000  0.00  0.00    +0.000 C 
ENDBRANCH  25  26
BRANCH  25  28
ATOM     28  C   UNL     1       7.150   1.710   0.000  0.00  0.00    +0.000 C 
ATOM     29  C   UNL     1       7.975   1.710   0.000  0.00  0.00    +0.000 C 
ENDBRANCH  25  28
ENDBRANCH  24  25
ENDBRANCH  23  24
ENDBRANCH   8  23
TORSDOF 8
