REMARK  Name = 
REMARK  7 active torsions:
REMARK  status: ('A' for Active; 'I' for Inactive)
REMARK    1  A    between atoms: C_1  and  C_11
REMARK    2  A    between atoms: N_7  and  N_10
REMARK    3  A    between atoms: N_12  and  C_17
REMARK    4  A    between atoms: C_14  and  O_16
REMARK    5  A    between atoms: C_17  and  C_19
REMARK    6  A    between atoms: C_19  and  C_21
REMARK    7  A    between atoms: C_20  and  C_21
REMARK                            x       y       z     vdW  Elec       q    Type
REMARK                         _______ _______ _______ _____ _____    ______ ____
ROOT
ATOM      1  C   UNL     1      -0.850  -0.379   0.000  0.00  0.00    +0.000 A 
ATOM      2  C   UNL     1      -1.633  -0.642   0.000  0.00  0.00    +0.000 A 
ATOM      3  N   UNL     1      -0.846  -1.717   0.000  0.00  0.00    +0.000 NA
ATOM      4  C   UNL     1      -0.362  -1.042   0.000  0.00  0.00    +0.000 A 
ATOM      5  C   UNL     1      -1.625  -1.462   0.000  0.00  0.00    +0.000 A 
ATOM      6  C   UNL     1      -2.358  -0.229   0.000  0.00  0.00    +0.000 A 
ATOM      7  C   UNL     1      -2.346  -1.879   0.000  0.00  0.00    +0.000 A 
ATOM      8  C   UNL     1      -3.062  -0.642   0.000  0.00  0.00    +0.000 A 
ATOM      9  C   UNL     1      -3.062  -1.467   0.000  0.00  0.00    +0.000 A 
ENDROOT
BRANCH   1  11
ATOM     10  N   UNL     1       0.204   0.583   0.000  0.00  0.00    +0.000 NA
ATOM     11  C   UNL     1      -0.600   0.400   0.000  0.00  0.00    +0.000 C 
BRANCH  10  14
ATOM     12  C   UNL     1       1.254   1.571   0.000  0.00  0.00    +0.000 C 
ATOM     13  N   UNL     1       1.479   2.362   0.000  0.00  0.00    +0.000 NA
ATOM     14  N   UNL     1       0.454   1.363   0.000  0.00  0.00    +0.000 NA
ATOM     15  N   UNL     1       1.829   0.983   0.000  0.00  0.00    +0.000 NA
BRANCH  15  16
ATOM     16  C   UNL     1       2.617   1.188   0.000  0.00  0.00    +0.000 C 
BRANCH  16  17
ATOM     17  C   UNL     1       3.192   0.596   0.000  0.00  0.00    +0.000 C 
BRANCH  17  18
ATOM     18  C   UNL     1       3.992   0.796   0.000  0.00  0.00    +0.000 C 
BRANCH  18  19
ATOM     19  C   UNL     1       4.567   0.200   0.000  0.00  0.00    +0.000 C 
ATOM     20  C   UNL     1       5.367   0.400   0.000  0.00  0.00    +0.000 C 
ENDBRANCH  18  19
ENDBRANCH  17  18
ENDBRANCH  16  17
ENDBRANCH  15  16
ENDBRANCH  10  14
ENDBRANCH   1  11
BRANCH   8  21
ATOM     21  O   UNL     1      -3.783  -0.237   0.000  0.00  0.00    +0.000 OA
ATOM     22  C   UNL     1      -4.496  -0.654   0.000  0.00  0.00    +0.000 C 
ENDBRANCH   8  21
TORSDOF 7
