REMARK  Name = 
REMARK  2 active torsions:
REMARK  status: ('A' for Active; 'I' for Inactive)
REMARK    1  A    between atoms: C_2  and  C_5
REMARK    2  A    between atoms: C_4  and  C_5
REMARK                            x       y       z     vdW  Elec       q    Type
REMARK                         _______ _______ _______ _____ _____    ______ ____
ROOT
ATOM      1  C   UNL     1       2.475  -4.192   0.000  0.00  0.00    +0.000 A 
ATOM      2  C   UNL     1       2.475  -4.904   0.000  0.00  0.00    +0.000 A 
ATOM      3  C   UNL     1       1.854  -3.837   0.000  0.00  0.00    +0.000 A 
ATOM      4 CL   UNL     1       1.854  -3.129   0.000  0.00  0.00    +0.000 Cl
ATOM      5 CL   UNL     1       3.092  -5.267   0.000  0.00  0.00    +0.000 Cl
ATOM      6  C   UNL     1       1.242  -4.904   0.000  0.00  0.00    +0.000 A 
ATOM      7  C   UNL     1       1.854  -5.267   0.000  0.00  0.00    +0.000 A 
ATOM      8  C   UNL     1       1.242  -4.192   0.000  0.00  0.00    +0.000 A 
ENDROOT
BRANCH   1   9
ATOM      9  C   UNL     1       3.092  -3.837   0.000  0.00  0.00    +0.000 C 
BRANCH   9  12
ATOM     10  N   UNL     1       4.317  -3.837   0.000  0.00  0.00    +0.000 NA
ATOM     11  C   UNL     1       4.900  -4.167   0.000  0.00  0.00    +0.000 C 
ATOM     12  C   UNL     1       3.704  -4.192   0.000  0.00  0.00    +0.000 C 
ATOM     13  N   UNL     1       4.900  -4.904   0.000  0.00  0.00    +0.000 NA
ATOM     14  O   UNL     1       3.712  -4.892   0.000  0.00  0.00    +0.000 OA
ATOM     15  N   UNL     1       5.479  -3.767   0.000  0.00  0.00    +0.000 NA
ENDBRANCH   9  12
ENDBRANCH   1   9
TORSDOF 2
