MODEL 1
REMARK VINA RESULT:      -6.2      0.000      0.000
REMARK  Name = 
REMARK  3 active torsions:
REMARK  status: ('A' for Active; 'I' for Inactive)
REMARK    1  A    between atoms: C_1  and  C_2
REMARK    2  A    between atoms: C_1  and  C_3
REMARK    3  A    between atoms: C_3  and  C_6
REMARK                            x       y       z     vdW  Elec       q    Type
REMARK                         _______ _______ _______ _____ _____    ______ ____
ROOT
ATOM      1  C   UNL     1     164.697 137.026 199.636  0.00  0.00    +0.000 C 
ENDROOT
BRANCH   1   2
ATOM      2  C   UNL     1     165.329 137.281 199.431  0.00  0.00    +0.000 A 
ATOM      3  C   UNL     1     166.594 137.787 199.040  0.00  0.00    +0.000 A 
ATOM      4  C   UNL     1     165.857 137.334 199.907  0.00  0.00    +0.000 A 
ATOM      5  C   UNL     1     165.438 137.483 198.763  0.00  0.00    +0.000 A 
ATOM      6  C   UNL     1     166.485 137.586 199.707  0.00  0.00    +0.000 A 
ATOM      7  C   UNL     1     166.066 137.735 198.564  0.00  0.00    +0.000 A 
ATOM      8  O   UNL     1     167.222 138.040 198.840  0.00  0.00    +0.000 OA
ENDBRANCH   1   2
BRANCH   1   9
ATOM      9  C   UNL     1     164.498 136.371 199.450  0.00  0.00    +0.000 C 
ATOM     10  N   UNL     1     164.277 135.911 198.954  0.00  0.00    +0.000 NA
ATOM     11  C   UNL     1     164.401 136.589 198.777  0.00  0.00    +0.000 C 
BRANCH   9  12
ATOM     12  C   UNL     1     164.483 135.859 199.940  0.00  0.00    +0.000 C 
ATOM     13  O   UNL     1     164.751 135.223 199.798  0.00  0.00    +0.000 OA
ATOM     14  O   UNL     1     164.196 135.992 200.579  0.00  0.00    +0.000 OA
ENDBRANCH   9  12
ENDBRANCH   1   9
TORSDOF 3
ENDMDL
MODEL 2
REMARK VINA RESULT:      -6.1     56.405     57.453
REMARK  Name = 
REMARK  3 active torsions:
REMARK  status: ('A' for Active; 'I' for Inactive)
REMARK    1  A    between atoms: C_1  and  C_2
REMARK    2  A    between atoms: C_1  and  C_3
REMARK    3  A    between atoms: C_3  and  C_6
REMARK                            x       y       z     vdW  Elec       q    Type
REMARK                         _______ _______ _______ _____ _____    ______ ____
ROOT
ATOM      1  C   UNL     1     118.664 124.494 168.727  0.00  0.00    +0.000 C 
ENDROOT
BRANCH   1   2
ATOM      2  C   UNL     1     118.432 124.111 168.174  0.00  0.00    +0.000 A 
ATOM      3  C   UNL     1     117.981 123.358 167.061  0.00  0.00    +0.000 A 
ATOM      4  C   UNL     1     118.634 124.290 167.514  0.00  0.00    +0.000 A 
ATOM      5  C   UNL     1     118.006 123.556 168.271  0.00  0.00    +0.000 A 
ATOM      6  C   UNL     1     118.406 123.911 166.963  0.00  0.00    +0.000 A 
ATOM      7  C   UNL     1     117.779 123.179 167.721  0.00  0.00    +0.000 A 
ATOM      8  O   UNL     1     117.753 122.980 166.510  0.00  0.00    +0.000 OA
ENDBRANCH   1   2
BRANCH   1   9
ATOM      9  C   UNL     1     119.172 124.239 169.152  0.00  0.00    +0.000 C 
ATOM     10  N   UNL     1     119.382 123.786 169.660  0.00  0.00    +0.000 NA
ATOM     11  C   UNL     1     118.707 123.775 169.432  0.00  0.00    +0.000 C 
BRANCH   9  12
ATOM     12  C   UNL     1     119.824 124.514 169.120  0.00  0.00    +0.000 C 
ATOM     13  O   UNL     1     120.387 124.092 169.085  0.00  0.00    +0.000 OA
ATOM     14  O   UNL     1     119.907 125.223 169.122  0.00  0.00    +0.000 OA
ENDBRANCH   9  12
ENDBRANCH   1   9
TORSDOF 3
ENDMDL
MODEL 3
REMARK VINA RESULT:      -6.1     65.753     66.157
REMARK  Name = 
REMARK  3 active torsions:
REMARK  status: ('A' for Active; 'I' for Inactive)
REMARK    1  A    between atoms: C_1  and  C_2
REMARK    2  A    between atoms: C_1  and  C_3
REMARK    3  A    between atoms: C_3  and  C_6
REMARK                            x       y       z     vdW  Elec       q    Type
REMARK                         _______ _______ _______ _____ _____    ______ ____
ROOT
ATOM      1  C   UNL     1     114.183 127.894 158.739  0.00  0.00    +0.000 C 
ENDROOT
BRANCH   1   2
ATOM      2  C   UNL     1     114.387 128.450 158.344  0.00  0.00    +0.000 A 
ATOM      3  C   UNL     1     114.794 129.545 157.541  0.00  0.00    +0.000 A 
ATOM      4  C   UNL     1     114.579 128.345 157.665  0.00  0.00    +0.000 A 
ATOM      5  C   UNL     1     114.400 129.101 158.615  0.00  0.00    +0.000 A 
ATOM      6  C   UNL     1     114.781 128.894 157.270  0.00  0.00    +0.000 A 
ATOM      7  C   UNL     1     114.602 129.649 158.220  0.00  0.00    +0.000 A 
ATOM      8  O   UNL     1     114.996 130.094 157.146  0.00  0.00    +0.000 OA
ENDBRANCH   1   2
BRANCH   1   9
ATOM      9  C   UNL     1     113.498 127.799 158.897  0.00  0.00    +0.000 C 
ATOM     10  N   UNL     1     112.835 127.635 158.696  0.00  0.00    +0.000 NA
ATOM     11  C   UNL     1     113.362 127.635 158.216  0.00  0.00    +0.000 C 
BRANCH   9  12
ATOM     12  C   UNL     1     113.278 127.893 159.565  0.00  0.00    +0.000 C 
ATOM     13  O   UNL     1     112.667 128.218 159.695  0.00  0.00    +0.000 OA
ATOM     14  O   UNL     1     113.680 127.656 160.104  0.00  0.00    +0.000 OA
ENDBRANCH   9  12
ENDBRANCH   1   9
TORSDOF 3
ENDMDL
MODEL 4
REMARK VINA RESULT:      -6.0     17.028     17.707
REMARK  Name = 
REMARK  3 active torsions:
REMARK  status: ('A' for Active; 'I' for Inactive)
REMARK    1  A    between atoms: C_1  and  C_2
REMARK    2  A    between atoms: C_1  and  C_3
REMARK    3  A    between atoms: C_3  and  C_6
REMARK                            x       y       z     vdW  Elec       q    Type
REMARK                         _______ _______ _______ _____ _____    ______ ____
ROOT
ATOM      1  C   UNL     1     161.239 132.181 182.206  0.00  0.00    +0.000 C 
ENDROOT
BRANCH   1   2
ATOM      2  C   UNL     1     161.123 132.796 182.544  0.00  0.00    +0.000 A 
ATOM      3  C   UNL     1     160.906 134.031 183.206  0.00  0.00    +0.000 A 
ATOM      4  C   UNL     1     161.466 133.384 182.329  0.00  0.00    +0.000 A 
ATOM      5  C   UNL     1     160.675 132.832 183.088  0.00  0.00    +0.000 A 
ATOM      6  C   UNL     1     161.354 133.996 182.662  0.00  0.00    +0.000 A 
ATOM      7  C   UNL     1     160.564 133.443 183.421  0.00  0.00    +0.000 A 
ATOM      8  O   UNL     1     160.794 134.643 183.539  0.00  0.00    +0.000 OA
ENDBRANCH   1   2
BRANCH   1   9
ATOM      9  C   UNL     1     161.673 131.694 182.486  0.00  0.00    +0.000 C 
ATOM     10  N   UNL     1     162.325 131.489 182.683  0.00  0.00    +0.000 NA
ATOM     11  C   UNL     1     162.228 132.132 182.392  0.00  0.00    +0.000 C 
BRANCH   9  12
ATOM     12  C   UNL     1     161.406 131.075 182.706  0.00  0.00    +0.000 C 
ATOM     13  O   UNL     1     161.622 130.790 183.313  0.00  0.00    +0.000 OA
ATOM     14  O   UNL     1     160.916 130.742 182.309  0.00  0.00    +0.000 OA
ENDBRANCH   9  12
ENDBRANCH   1   9
TORSDOF 3
ENDMDL
MODEL 5
REMARK VINA RESULT:      -6.0    114.200    114.851
REMARK  Name = 
REMARK  3 active torsions:
REMARK  status: ('A' for Active; 'I' for Inactive)
REMARK    1  A    between atoms: C_1  and  C_2
REMARK    2  A    between atoms: C_1  and  C_3
REMARK    3  A    between atoms: C_3  and  C_6
REMARK                            x       y       z     vdW  Elec       q    Type
REMARK                         _______ _______ _______ _____ _____    ______ ____
ROOT
ATOM      1  C   UNL     1     133.525 148.913  89.372  0.00  0.00    +0.000 C 
ENDROOT
BRANCH   1   2
ATOM      2  C   UNL     1     133.145 148.311  89.382  0.00  0.00    +0.000 A 
ATOM      3  C   UNL     1     132.372 147.123  89.402  0.00  0.00    +0.000 A 
ATOM      4  C   UNL     1     132.433 148.346  89.391  0.00  0.00    +0.000 A 
ATOM      5  C   UNL     1     133.464 147.681  89.384  0.00  0.00    +0.000 A 
ATOM      6  C   UNL     1     132.053 147.751  89.401  0.00  0.00    +0.000 A 
ATOM      7  C   UNL     1     133.085 147.087  89.393  0.00  0.00    +0.000 A 
ATOM      8  O   UNL     1     131.993 146.528  89.412  0.00  0.00    +0.000 OA
ENDBRANCH   1   2
BRANCH   1   9
ATOM      9  C   UNL     1     133.782 149.184  89.976  0.00  0.00    +0.000 C 
ATOM     10  N   UNL     1     134.237 149.152  90.522  0.00  0.00    +0.000 NA
ATOM     11  C   UNL     1     134.250 148.647  90.021  0.00  0.00    +0.000 C 
BRANCH   9  12
ATOM     12  C   UNL     1     133.504 149.782  90.235  0.00  0.00    +0.000 C 
ATOM     13  O   UNL     1     133.375 150.328  89.809  0.00  0.00    +0.000 OA
ATOM     14  O   UNL     1     133.355 149.829  90.931  0.00  0.00    +0.000 OA
ENDBRANCH   9  12
ENDBRANCH   1   9
TORSDOF 3
ENDMDL
MODEL 6
REMARK VINA RESULT:      -6.0     92.063     92.627
REMARK  Name = 
REMARK  3 active torsions:
REMARK  status: ('A' for Active; 'I' for Inactive)
REMARK    1  A    between atoms: C_1  and  C_2
REMARK    2  A    between atoms: C_1  and  C_3
REMARK    3  A    between atoms: C_3  and  C_6
REMARK                            x       y       z     vdW  Elec       q    Type
REMARK                         _______ _______ _______ _____ _____    ______ ____
ROOT
ATOM      1  C   UNL     1     115.323 124.778 123.089  0.00  0.00    +0.000 C 
ENDROOT
BRANCH   1   2
ATOM      2  C   UNL     1     115.233 124.107 122.869  0.00  0.00    +0.000 A 
ATOM      3  C   UNL     1     115.070 122.771 122.423  0.00  0.00    +0.000 A 
ATOM      4  C   UNL     1     115.757 123.781 122.512  0.00  0.00    +0.000 A 
ATOM      5  C   UNL     1     114.631 123.761 122.999  0.00  0.00    +0.000 A 
ATOM      6  C   UNL     1     115.671 123.116 122.293  0.00  0.00    +0.000 A 
ATOM      7  C   UNL     1     114.545 123.097 122.780  0.00  0.00    +0.000 A 
ATOM      8  O   UNL     1     114.984 122.106 122.204  0.00  0.00    +0.000 OA
ENDBRANCH   1   2
BRANCH   1   9
ATOM      9  C   UNL     1     115.091 125.319 122.692  0.00  0.00    +0.000 C 
ATOM     10  N   UNL     1     115.145 125.724 122.109  0.00  0.00    +0.000 NA
ATOM     11  C   UNL     1     115.604 125.190 122.213  0.00  0.00    +0.000 C 
BRANCH   9  12
ATOM     12  C   UNL     1     114.533 125.697 122.911  0.00  0.00    +0.000 C 
ATOM     13  O   UNL     1     114.442 125.832 123.596  0.00  0.00    +0.000 OA
ATOM     14  O   UNL     1     114.063 125.941 122.432  0.00  0.00    +0.000 OA
ENDBRANCH   9  12
ENDBRANCH   1   9
TORSDOF 3
ENDMDL
MODEL 7
REMARK VINA RESULT:      -6.0    115.031    115.664
REMARK  Name = 
REMARK  3 active torsions:
REMARK  status: ('A' for Active; 'I' for Inactive)
REMARK    1  A    between atoms: C_1  and  C_2
REMARK    2  A    between atoms: C_1  and  C_3
REMARK    3  A    between atoms: C_3  and  C_6
REMARK                            x       y       z     vdW  Elec       q    Type
REMARK                         _______ _______ _______ _____ _____    ______ ____
ROOT
ATOM      1  C   UNL     1     134.018 147.799  88.206  0.00  0.00    +0.000 C 
ENDROOT
BRANCH   1   2
ATOM      2  C   UNL     1     133.789 148.205  88.745  0.00  0.00    +0.000 A 
ATOM      3  C   UNL     1     133.347 149.004  89.828  0.00  0.00    +0.000 A 
ATOM      4  C   UNL     1     134.066 148.112  89.395  0.00  0.00    +0.000 A 
ATOM      5  C   UNL     1     133.294 148.697  88.642  0.00  0.00    +0.000 A 
ATOM      6  C   UNL     1     133.842 148.513  89.931  0.00  0.00    +0.000 A 
ATOM      7  C   UNL     1     133.071 149.097  89.178  0.00  0.00    +0.000 A 
ATOM      8  O   UNL     1     133.123 149.405  90.364  0.00  0.00    +0.000 OA
ENDBRANCH   1   2
BRANCH   1   9
ATOM      9  C   UNL     1     133.616 147.265  87.965  0.00  0.00    +0.000 C 
ATOM     10  N   UNL     1     133.049 147.035  87.603  0.00  0.00    +0.000 NA
ATOM     11  C   UNL     1     133.176 147.733  87.655  0.00  0.00    +0.000 C 
BRANCH   9  12
ATOM     12  C   UNL     1     133.800 146.597  88.115  0.00  0.00    +0.000 C 
ATOM     13  O   UNL     1     134.467 146.387  88.041  0.00  0.00    +0.000 OA
ATOM     14  O   UNL     1     133.303 146.138  88.342  0.00  0.00    +0.000 OA
ENDBRANCH   9  12
ENDBRANCH   1   9
TORSDOF 3
ENDMDL
MODEL 8
REMARK VINA RESULT:      -5.9     16.253     17.197
REMARK  Name = 
REMARK  3 active torsions:
REMARK  status: ('A' for Active; 'I' for Inactive)
REMARK    1  A    between atoms: C_1  and  C_2
REMARK    2  A    between atoms: C_1  and  C_3
REMARK    3  A    between atoms: C_3  and  C_6
REMARK                            x       y       z     vdW  Elec       q    Type
REMARK                         _______ _______ _______ _____ _____    ______ ____
ROOT
ATOM      1  C   UNL     1     158.350 121.871 196.647  0.00  0.00    +0.000 C 
ENDROOT
BRANCH   1   2
ATOM      2  C   UNL     1     158.670 121.292 196.910  0.00  0.00    +0.000 A 
ATOM      3  C   UNL     1     159.314 120.149 197.446  0.00  0.00    +0.000 A 
ATOM      4  C   UNL     1     159.114 121.357 197.463  0.00  0.00    +0.000 A 
ATOM      5  C   UNL     1     158.552 120.655 196.629  0.00  0.00    +0.000 A 
ATOM      6  C   UNL     1     159.432 120.785 197.727  0.00  0.00    +0.000 A 
ATOM      7  C   UNL     1     158.870 120.083 196.892  0.00  0.00    +0.000 A 
ATOM      8  O   UNL     1     159.633 119.577 197.709  0.00  0.00    +0.000 OA
ENDBRANCH   1   2
BRANCH   1   9
ATOM      9  C   UNL     1     158.599 122.181 196.059  0.00  0.00    +0.000 C 
ATOM     10  N   UNL     1     159.100 122.562 195.727  0.00  0.00    +0.000 NA
ATOM     11  C   UNL     1     159.173 122.407 196.418  0.00  0.00    +0.000 C 
BRANCH   9  12
ATOM     12  C   UNL     1     158.225 122.139 195.458  0.00  0.00    +0.000 C 
ATOM     13  O   UNL     1     157.522 122.160 195.475  0.00  0.00    +0.000 OA
ATOM     14  O   UNL     1     158.566 122.074 194.835  0.00  0.00    +0.000 OA
ENDBRANCH   9  12
ENDBRANCH   1   9
TORSDOF 3
ENDMDL
MODEL 9
REMARK VINA RESULT:      -5.9     87.157     88.095
REMARK  Name = 
REMARK  3 active torsions:
REMARK  status: ('A' for Active; 'I' for Inactive)
REMARK    1  A    between atoms: C_1  and  C_2
REMARK    2  A    between atoms: C_1  and  C_3
REMARK    3  A    between atoms: C_3  and  C_6
REMARK                            x       y       z     vdW  Elec       q    Type
REMARK                         _______ _______ _______ _____ _____    ______ ____
ROOT
ATOM      1  C   UNL     1     101.399 129.305 139.950  0.00  0.00    +0.000 C 
ENDROOT
BRANCH   1   2
ATOM      2  C   UNL     1     100.704 129.458 139.942  0.00  0.00    +0.000 A 
ATOM      3  C   UNL     1      99.317 129.750 139.913  0.00  0.00    +0.000 A 
ATOM      4  C   UNL     1     100.283 129.151 139.456  0.00  0.00    +0.000 A 
ATOM      5  C   UNL     1     100.428 129.908 140.410  0.00  0.00    +0.000 A 
ATOM      6  C   UNL     1      99.593 129.300 139.446  0.00  0.00    +0.000 A 
ATOM      7  C   UNL     1      99.739 130.057 140.400  0.00  0.00    +0.000 A 
ATOM      8  O   UNL     1      98.627 129.899 139.903  0.00  0.00    +0.000 OA
ENDBRANCH   1   2
BRANCH   1   9
ATOM      9  C   UNL     1     101.844 129.640 139.509  0.00  0.00    +0.000 C 
ATOM     10  N   UNL     1     102.104 129.742 138.855  0.00  0.00    +0.000 NA
ATOM     11  C   UNL     1     101.591 129.260 138.961  0.00  0.00    +0.000 C 
BRANCH   9  12
ATOM     12  C   UNL     1     102.282 130.134 139.767  0.00  0.00    +0.000 C 
ATOM     13  O   UNL     1     102.609 130.034 140.382  0.00  0.00    +0.000 OA
ATOM     14  O   UNL     1     102.391 130.735 139.398  0.00  0.00    +0.000 OA
ENDBRANCH   9  12
ENDBRANCH   1   9
TORSDOF 3
ENDMDL
MODEL 10
REMARK VINA RESULT:      -5.8     47.623     48.383
REMARK  Name = 
REMARK  3 active torsions:
REMARK  status: ('A' for Active; 'I' for Inactive)
REMARK    1  A    between atoms: C_1  and  C_2
REMARK    2  A    between atoms: C_1  and  C_3
REMARK    3  A    between atoms: C_3  and  C_6
REMARK                            x       y       z     vdW  Elec       q    Type
REMARK                         _______ _______ _______ _____ _____    ______ ____
ROOT
ATOM      1  C   UNL     1     118.661 151.795 199.392  0.00  0.00    +0.000 C 
ENDROOT
BRANCH   1   2
ATOM      2  C   UNL     1     119.283 151.643 199.082  0.00  0.00    +0.000 A 
ATOM      3  C   UNL     1     120.531 151.346 198.479  0.00  0.00    +0.000 A 
ATOM      4  C   UNL     1     119.890 151.767 199.434  0.00  0.00    +0.000 A 
ATOM      5  C   UNL     1     119.306 151.371 198.431  0.00  0.00    +0.000 A 
ATOM      6  C   UNL     1     120.509 151.617 199.130  0.00  0.00    +0.000 A 
ATOM      7  C   UNL     1     119.924 151.222 198.126  0.00  0.00    +0.000 A 
ATOM      8  O   UNL     1     121.150 151.196 198.174  0.00  0.00    +0.000 OA
ENDBRANCH   1   2
BRANCH   1   9
ATOM      9  C   UNL     1     118.261 151.276 199.667  0.00  0.00    +0.000 C 
ATOM     10  N   UNL     1     117.835 150.714 199.579  0.00  0.00    +0.000 NA
ATOM     11  C   UNL     1     118.099 151.051 199.010  0.00  0.00    +0.000 C 
BRANCH   9  12
ATOM     12  C   UNL     1     118.205 151.216 200.371  0.00  0.00    +0.000 C 
ATOM     13  O   UNL     1     118.120 151.790 200.771  0.00  0.00    +0.000 OA
ATOM     14  O   UNL     1     118.235 150.571 200.672  0.00  0.00    +0.000 OA
ENDBRANCH   9  12
ENDBRANCH   1   9
TORSDOF 3
ENDMDL
MODEL 11
REMARK VINA RESULT:      -5.8      1.378      2.353
REMARK  Name = 
REMARK  3 active torsions:
REMARK  status: ('A' for Active; 'I' for Inactive)
REMARK    1  A    between atoms: C_1  and  C_2
REMARK    2  A    between atoms: C_1  and  C_3
REMARK    3  A    between atoms: C_3  and  C_6
REMARK                            x       y       z     vdW  Elec       q    Type
REMARK                         _______ _______ _______ _____ _____    ______ ____
ROOT
ATOM      1  C   UNL     1     164.683 137.534 199.653  0.00  0.00    +0.000 C 
ENDROOT
BRANCH   1   2
ATOM      2  C   UNL     1     164.756 137.490 200.360  0.00  0.00    +0.000 A 
ATOM      3  C   UNL     1     164.884 137.392 201.768  0.00  0.00    +0.000 A 
ATOM      4  C   UNL     1     164.253 137.160 200.744  0.00  0.00    +0.000 A 
ATOM      5  C   UNL     1     165.318 137.768 200.684  0.00  0.00    +0.000 A 
ATOM      6  C   UNL     1     164.323 137.114 201.445  0.00  0.00    +0.000 A 
ATOM      7  C   UNL     1     165.386 137.722 201.384  0.00  0.00    +0.000 A 
ATOM      8  O   UNL     1     164.953 137.346 202.469  0.00  0.00    +0.000 OA
ENDBRANCH   1   2
BRANCH   1   9
ATOM      9  C   UNL     1     165.041 137.092 199.228  0.00  0.00    +0.000 C 
ATOM     10  N   UNL     1     165.153 136.438 198.972  0.00  0.00    +0.000 NA
ATOM     11  C   UNL     1     164.640 136.547 199.454  0.00  0.00    +0.000 C 
BRANCH   9  12
ATOM     12  C   UNL     1     165.564 137.347 198.823  0.00  0.00    +0.000 C 
ATOM     13  O   UNL     1     166.182 137.013 198.789  0.00  0.00    +0.000 OA
ATOM     14  O   UNL     1     165.459 137.945 198.449  0.00  0.00    +0.000 OA
ENDBRANCH   9  12
ENDBRANCH   1   9
TORSDOF 3
ENDMDL
MODEL 12
REMARK VINA RESULT:      -5.7     60.550     60.955
REMARK  Name = 
REMARK  3 active torsions:
REMARK  status: ('A' for Active; 'I' for Inactive)
REMARK    1  A    between atoms: C_1  and  C_2
REMARK    2  A    between atoms: C_1  and  C_3
REMARK    3  A    between atoms: C_3  and  C_6
REMARK                            x       y       z     vdW  Elec       q    Type
REMARK                         _______ _______ _______ _____ _____    ______ ____
ROOT
ATOM      1  C   UNL     1     106.450 121.227 192.006  0.00  0.00    +0.000 C 
ENDROOT
BRANCH   1   2
ATOM      2  C   UNL     1     106.440 121.868 192.314  0.00  0.00    +0.000 A 
ATOM      3  C   UNL     1     106.429 123.153 192.914  0.00  0.00    +0.000 A 
ATOM      4  C   UNL     1     106.725 122.426 191.973  0.00  0.00    +0.000 A 
ATOM      5  C   UNL     1     106.152 121.958 192.952  0.00  0.00    +0.000 A 
ATOM      6  C   UNL     1     106.716 123.063 192.276  0.00  0.00    +0.000 A 
ATOM      7  C   UNL     1     106.144 122.595 193.255  0.00  0.00    +0.000 A 
ATOM      8  O   UNL     1     106.420 123.790 193.217  0.00  0.00    +0.000 OA
ENDBRANCH   1   2
BRANCH   1   9
ATOM      9  C   UNL     1     106.769 120.680 192.327  0.00  0.00    +0.000 C 
ATOM     10  N   UNL     1     106.774 120.176 192.829  0.00  0.00    +0.000 NA
ATOM     11  C   UNL     1     106.220 120.620 192.777  0.00  0.00    +0.000 C 
BRANCH   9  12
ATOM     12  C   UNL     1     107.403 120.463 192.095  0.00  0.00    +0.000 C 
ATOM     13  O   UNL     1     107.938 120.382 192.545  0.00  0.00    +0.000 OA
ATOM     14  O   UNL     1     107.496 120.326 191.401  0.00  0.00    +0.000 OA
ENDBRANCH   9  12
ENDBRANCH   1   9
TORSDOF 3
ENDMDL
MODEL 13
REMARK VINA RESULT:      -5.6    121.228    121.874
REMARK  Name = 
REMARK  3 active torsions:
REMARK  status: ('A' for Active; 'I' for Inactive)
REMARK    1  A    between atoms: C_1  and  C_2
REMARK    2  A    between atoms: C_1  and  C_3
REMARK    3  A    between atoms: C_3  and  C_6
REMARK                            x       y       z     vdW  Elec       q    Type
REMARK                         _______ _______ _______ _____ _____    ______ ____
ROOT
ATOM      1  C   UNL     1     121.213 138.833  85.563  0.00  0.00    +0.000 C 
ENDROOT
BRANCH   1   2
ATOM      2  C   UNL     1     121.100 139.422  85.947  0.00  0.00    +0.000 A 
ATOM      3  C   UNL     1     120.879 140.585  86.726  0.00  0.00    +0.000 A 
ATOM      4  C   UNL     1     121.184 139.401  86.655  0.00  0.00    +0.000 A 
ATOM      5  C   UNL     1     120.906 140.025  85.635  0.00  0.00    +0.000 A 
ATOM      6  C   UNL     1     121.073 139.983  87.038  0.00  0.00    +0.000 A 
ATOM      7  C   UNL     1     120.795 140.606  86.019  0.00  0.00    +0.000 A 
ATOM      8  O   UNL     1     120.768 141.167  87.110  0.00  0.00    +0.000 OA
ENDBRANCH   1   2
BRANCH   1   9
ATOM      9  C   UNL     1     120.674 138.399  85.407  0.00  0.00    +0.000 C 
ATOM     10  N   UNL     1     120.062 138.273  85.067  0.00  0.00    +0.000 NA
ATOM     11  C   UNL     1     120.384 138.904  84.996  0.00  0.00    +0.000 C 
BRANCH   9  12
ATOM     12  C   UNL     1     120.660 137.747  85.685  0.00  0.00    +0.000 C 
ATOM     13  O   UNL     1     120.073 137.501  85.986  0.00  0.00    +0.000 OA
ATOM     14  O   UNL     1     121.246 137.340  85.659  0.00  0.00    +0.000 OA
ENDBRANCH   9  12
ENDBRANCH   1   9
TORSDOF 3
ENDMDL
MODEL 14
REMARK VINA RESULT:      -5.6     17.740     18.363
REMARK  Name = 
REMARK  3 active torsions:
REMARK  status: ('A' for Active; 'I' for Inactive)
REMARK    1  A    between atoms: C_1  and  C_2
REMARK    2  A    between atoms: C_1  and  C_3
REMARK    3  A    between atoms: C_3  and  C_6
REMARK                            x       y       z     vdW  Elec       q    Type
REMARK                         _______ _______ _______ _____ _____    ______ ____
ROOT
ATOM      1  C   UNL     1     161.602 132.594 182.725  0.00  0.00    +0.000 C 
ENDROOT
BRANCH   1   2
ATOM      2  C   UNL     1     161.398 131.924 182.599  0.00  0.00    +0.000 A 
ATOM      3  C   UNL     1     160.975 130.595 182.344  0.00  0.00    +0.000 A 
ATOM      4  C   UNL     1     160.747 131.799 182.337  0.00  0.00    +0.000 A 
ATOM      5  C   UNL     1     161.832 131.383 182.731  0.00  0.00    +0.000 A 
ATOM      6  C   UNL     1     160.541 131.135 182.212  0.00  0.00    +0.000 A 
ATOM      7  C   UNL     1     161.626 130.720 182.606  0.00  0.00    +0.000 A 
ATOM      8  O   UNL     1     160.770 129.932 182.218  0.00  0.00    +0.000 OA
ENDBRANCH   1   2
BRANCH   1   9
ATOM      9  C   UNL     1     161.938 132.966 182.222  0.00  0.00    +0.000 C 
ATOM     10  N   UNL     1     162.510 133.075 181.814  0.00  0.00    +0.000 NA
ATOM     11  C   UNL     1     162.504 132.537 182.279  0.00  0.00    +0.000 C 
BRANCH   9  12
ATOM     12  C   UNL     1     161.612 133.521 181.924  0.00  0.00    +0.000 C 
ATOM     13  O   UNL     1     161.617 133.603 181.225  0.00  0.00    +0.000 OA
ATOM     14  O   UNL     1     161.279 133.997 182.338  0.00  0.00    +0.000 OA
ENDBRANCH   9  12
ENDBRANCH   1   9
TORSDOF 3
ENDMDL
MODEL 15
REMARK VINA RESULT:      -5.6    110.131    110.759
REMARK  Name = 
REMARK  3 active torsions:
REMARK  status: ('A' for Active; 'I' for Inactive)
REMARK    1  A    between atoms: C_1  and  C_2
REMARK    2  A    between atoms: C_1  and  C_3
REMARK    3  A    between atoms: C_3  and  C_6
REMARK                            x       y       z     vdW  Elec       q    Type
REMARK                         _______ _______ _______ _____ _____    ______ ____
ROOT
ATOM      1  C   UNL     1     133.635 162.975  96.686  0.00  0.00    +0.000 C 
ENDROOT
BRANCH   1   2
ATOM      2  C   UNL     1     133.314 163.564  96.448  0.00  0.00    +0.000 A 
ATOM      3  C   UNL     1     132.659 164.733  95.985  0.00  0.00    +0.000 A 
ATOM      4  C   UNL     1     132.653 163.718  96.670  0.00  0.00    +0.000 A 
ATOM      5  C   UNL     1     133.641 163.998  95.997  0.00  0.00    +0.000 A 
ATOM      6  C   UNL     1     132.332 164.301  96.436  0.00  0.00    +0.000 A 
ATOM      7  C   UNL     1     133.319 164.580  95.763  0.00  0.00    +0.000 A 
ATOM      8  O   UNL     1     132.338 165.317  95.751  0.00  0.00    +0.000 OA
ENDBRANCH   1   2
BRANCH   1   9
ATOM      9  C   UNL     1     134.075 163.007  97.243  0.00  0.00    +0.000 C 
ATOM     10  N   UNL     1     134.181 163.094  97.941  0.00  0.00    +0.000 NA
ATOM     11  C   UNL     1     133.521 163.126  97.676  0.00  0.00    +0.000 C 
BRANCH   9  12
ATOM     12  C   UNL     1     134.771 162.920  97.141  0.00  0.00    +0.000 C 
ATOM     13  O   UNL     1     135.231 163.372  97.425  0.00  0.00    +0.000 OA
ATOM     14  O   UNL     1     135.003 162.371  96.750  0.00  0.00    +0.000 OA
ENDBRANCH   9  12
ENDBRANCH   1   9
TORSDOF 3
ENDMDL
MODEL 16
REMARK VINA RESULT:      -5.6    115.261    115.908
REMARK  Name = 
REMARK  3 active torsions:
REMARK  status: ('A' for Active; 'I' for Inactive)
REMARK    1  A    between atoms: C_1  and  C_2
REMARK    2  A    between atoms: C_1  and  C_3
REMARK    3  A    between atoms: C_3  and  C_6
REMARK                            x       y       z     vdW  Elec       q    Type
REMARK                         _______ _______ _______ _____ _____    ______ ____
ROOT
ATOM      1  C   UNL     1     132.653 148.370  89.451  0.00  0.00    +0.000 C 
ENDROOT
BRANCH   1   2
ATOM      2  C   UNL     1     132.317 148.526  88.842  0.00  0.00    +0.000 A 
ATOM      3  C   UNL     1     131.637 148.822  87.635  0.00  0.00    +0.000 A 
ATOM      4  C   UNL     1     131.752 148.138  88.644  0.00  0.00    +0.000 A 
ATOM      5  C   UNL     1     132.536 149.059  88.434  0.00  0.00    +0.000 A 
ATOM      6  C   UNL     1     131.417 148.290  88.042  0.00  0.00    +0.000 A 
ATOM      7  C   UNL     1     132.201 149.210  87.833  0.00  0.00    +0.000 A 
ATOM      8  O   UNL     1     131.302 148.974  87.032  0.00  0.00    +0.000 OA
ENDBRANCH   1   2
BRANCH   1   9
ATOM      9  C   UNL     1     133.212 147.933  89.449  0.00  0.00    +0.000 C 
ATOM     10  N   UNL     1     133.484 147.280  89.376  0.00  0.00    +0.000 NA
ATOM     11  C   UNL     1     132.783 147.381  89.306  0.00  0.00    +0.000 C 
BRANCH   9  12
ATOM     12  C   UNL     1     133.859 148.196  89.571  0.00  0.00    +0.000 C 
ATOM     13  O   UNL     1     133.962 148.660  90.090  0.00  0.00    +0.000 OA
ATOM     14  O   UNL     1     134.407 147.986  89.165  0.00  0.00    +0.000 OA
ENDBRANCH   9  12
ENDBRANCH   1   9
TORSDOF 3
ENDMDL
MODEL 17
REMARK VINA RESULT:      -5.6    121.445    122.093
REMARK  Name = 
REMARK  3 active torsions:
REMARK  status: ('A' for Active; 'I' for Inactive)
REMARK    1  A    between atoms: C_1  and  C_2
REMARK    2  A    between atoms: C_1  and  C_3
REMARK    3  A    between atoms: C_3  and  C_6
REMARK                            x       y       z     vdW  Elec       q    Type
REMARK                         _______ _______ _______ _____ _____    ______ ____
ROOT
ATOM      1  C   UNL     1     120.912 140.384  85.618  0.00  0.00    +0.000 C 
ENDROOT
BRANCH   1   2
ATOM      2  C   UNL     1     120.917 139.672  85.605  0.00  0.00    +0.000 A 
ATOM      3  C   UNL     1     120.940 138.255  85.589  0.00  0.00    +0.000 A 
ATOM      4  C   UNL     1     121.418 139.318  85.967  0.00  0.00    +0.000 A 
ATOM      5  C   UNL     1     120.431 139.315  85.238  0.00  0.00    +0.000 A 
ATOM      6  C   UNL     1     121.425 138.612  85.956  0.00  0.00    +0.000 A 
ATOM      7  C   UNL     1     120.439 138.610  85.227  0.00  0.00    +0.000 A 
ATOM      8  O   UNL     1     120.947 137.550  85.578  0.00  0.00    +0.000 OA
ENDBRANCH   1   2
BRANCH   1   9
ATOM      9  C   UNL     1     120.510 140.731  86.090  0.00  0.00    +0.000 C 
ATOM     10  N   UNL     1     120.374 140.922  86.761  0.00  0.00    +0.000 NA
ATOM     11  C   UNL     1     120.937 140.511  86.618  0.00  0.00    +0.000 C 
BRANCH   9  12
ATOM     12  C   UNL     1     119.943 141.092  85.865  0.00  0.00    +0.000 C 
ATOM     13  O   UNL     1     119.326 141.028  86.198  0.00  0.00    +0.000 OA
ATOM     14  O   UNL     1     120.001 141.521  85.298  0.00  0.00    +0.000 OA
ENDBRANCH   9  12
ENDBRANCH   1   9
TORSDOF 3
ENDMDL
MODEL 18
REMARK VINA RESULT:      -5.5     18.633     19.466
REMARK  Name = 
REMARK  3 active torsions:
REMARK  status: ('A' for Active; 'I' for Inactive)
REMARK    1  A    between atoms: C_1  and  C_2
REMARK    2  A    between atoms: C_1  and  C_3
REMARK    3  A    between atoms: C_3  and  C_6
REMARK                            x       y       z     vdW  Elec       q    Type
REMARK                         _______ _______ _______ _____ _____    ______ ____
ROOT
ATOM      1  C   UNL     1     149.912 139.704 188.600  0.00  0.00    +0.000 C 
ENDROOT
BRANCH   1   2
ATOM      2  C   UNL     1     149.466 140.228 188.417  0.00  0.00    +0.000 A 
ATOM      3  C   UNL     1     148.565 141.259 188.051  0.00  0.00    +0.000 A 
ATOM      4  C   UNL     1     148.788 140.073 188.258  0.00  0.00    +0.000 A 
ATOM      5  C   UNL     1     149.687 140.898 188.391  0.00  0.00    +0.000 A 
ATOM      6  C   UNL     1     148.344 140.590 188.077  0.00  0.00    +0.000 A 
ATOM      7  C   UNL     1     149.243 141.414 188.210  0.00  0.00    +0.000 A 
ATOM      8  O   UNL     1     148.121 141.777 187.870  0.00  0.00    +0.000 OA
ENDBRANCH   1   2
BRANCH   1   9
ATOM      9  C   UNL     1     149.958 139.493 189.276  0.00  0.00    +0.000 C 
ATOM     10  N   UNL     1     150.133 139.625 189.953  0.00  0.00    +0.000 NA
ATOM     11  C   UNL     1     150.230 140.127 189.457  0.00  0.00    +0.000 C 
BRANCH   9  12
ATOM     12  C   UNL     1     149.745 138.840 189.452  0.00  0.00    +0.000 C 
ATOM     13  O   UNL     1     149.955 138.284 189.075  0.00  0.00    +0.000 OA
ATOM     14  O   UNL     1     149.317 138.749 190.015  0.00  0.00    +0.000 OA
ENDBRANCH   9  12
ENDBRANCH   1   9
TORSDOF 3
ENDMDL
MODEL 19
REMARK VINA RESULT:      -5.5     14.458     15.804
REMARK  Name = 
REMARK  3 active torsions:
REMARK  status: ('A' for Active; 'I' for Inactive)
REMARK    1  A    between atoms: C_1  and  C_2
REMARK    2  A    between atoms: C_1  and  C_3
REMARK    3  A    between atoms: C_3  and  C_6
REMARK                            x       y       z     vdW  Elec       q    Type
REMARK                         _______ _______ _______ _____ _____    ______ ____
ROOT
ATOM      1  C   UNL     1     160.077 122.741 195.683  0.00  0.00    +0.000 C 
ENDROOT
BRANCH   1   2
ATOM      2  C   UNL     1     159.413 122.489 195.733  0.00  0.00    +0.000 A 
ATOM      3  C   UNL     1     158.090 121.986 195.814  0.00  0.00    +0.000 A 
ATOM      4  C   UNL     1     159.042 122.358 195.139  0.00  0.00    +0.000 A 
ATOM      5  C   UNL     1     159.119 122.367 196.363  0.00  0.00    +0.000 A 
ATOM      6  C   UNL     1     158.384 122.107 195.185  0.00  0.00    +0.000 A 
ATOM      7  C   UNL     1     158.461 122.117 196.409  0.00  0.00    +0.000 A 
ATOM      8  O   UNL     1     157.432 121.735 195.860  0.00  0.00    +0.000 OA
ENDBRANCH   1   2
BRANCH   1   9
ATOM      9  C   UNL     1     160.193 123.441 195.663  0.00  0.00    +0.000 C 
ATOM     10  N   UNL     1     160.158 124.063 195.318  0.00  0.00    +0.000 NA
ATOM     11  C   UNL     1     159.920 123.469 195.004  0.00  0.00    +0.000 C 
BRANCH   9  12
ATOM     12  C   UNL     1     160.485 123.762 196.223  0.00  0.00    +0.000 C 
ATOM     13  O   UNL     1     160.233 124.378 196.452  0.00  0.00    +0.000 OA
ATOM     14  O   UNL     1     161.038 123.456 196.555  0.00  0.00    +0.000 OA
ENDBRANCH   9  12
ENDBRANCH   1   9
TORSDOF 3
ENDMDL
MODEL 20
REMARK VINA RESULT:      -5.5     60.466     61.137
REMARK  Name = 
REMARK  3 active torsions:
REMARK  status: ('A' for Active; 'I' for Inactive)
REMARK    1  A    between atoms: C_1  and  C_2
REMARK    2  A    between atoms: C_1  and  C_3
REMARK    3  A    between atoms: C_3  and  C_6
REMARK                            x       y       z     vdW  Elec       q    Type
REMARK                         _______ _______ _______ _____ _____    ______ ____
ROOT
ATOM      1  C   UNL     1     136.090 127.299 146.737  0.00  0.00    +0.000 C 
ENDROOT
BRANCH   1   2
ATOM      2  C   UNL     1     136.265 127.989 146.766  0.00  0.00    +0.000 A 
ATOM      3  C   UNL     1     136.630 129.357 146.817  0.00  0.00    +0.000 A 
ATOM      4  C   UNL     1     136.887 128.205 146.492  0.00  0.00    +0.000 A 
ATOM      5  C   UNL     1     135.832 128.460 147.064  0.00  0.00    +0.000 A 
ATOM      6  C   UNL     1     137.063 128.888 146.520  0.00  0.00    +0.000 A 
ATOM      7  C   UNL     1     136.009 129.141 147.092  0.00  0.00    +0.000 A 
ATOM      8  O   UNL     1     136.807 130.040 146.845  0.00  0.00    +0.000 OA
ENDBRANCH   1   2
BRANCH   1   9
ATOM      9  C   UNL     1     135.638 127.066 146.242  0.00  0.00    +0.000 C 
ATOM     10  N   UNL     1     135.487 126.927 145.561  0.00  0.00    +0.000 NA
ATOM     11  C   UNL     1     136.124 127.193 145.735  0.00  0.00    +0.000 C 
BRANCH   9  12
ATOM     12  C   UNL     1     134.994 126.841 146.437  0.00  0.00    +0.000 C 
ATOM     13  O   UNL     1     134.917 126.437 147.008  0.00  0.00    +0.000 OA
ATOM     14  O   UNL     1     134.424 127.028 146.050  0.00  0.00    +0.000 OA
ENDBRANCH   9  12
ENDBRANCH   1   9
TORSDOF 3
ENDMDL
