
     RDKit          2D

 60 66  0  0  1  0  0  0  0  0999 V2000
    0.5292   -0.3167    0.0000 C   0  0  0  0  0  0  0  0  0  0  0  0
   -0.0458   -0.6542    0.0000 C   0  0  0  0  0  0  0  0  0  0  0  0
    0.5292    0.3208    0.0000 C   0  0  0  0  0  0  0  0  0  0  0  0
   -0.5958   -0.3375    0.0000 C   0  0  0  0  0  0  0  0  0  0  0  0
   -0.0458    0.6458    0.0000 C   0  0  0  0  0  0  0  0  0  0  0  0
   -0.5958    0.3208    0.0000 C   0  0  0  0  0  0  0  0  0  0  0  0
    1.1042   -0.6375    0.0000 O   0  0  0  0  0  0  0  0  0  0  0  0
    1.1042    0.6250    0.0000 O   0  0  0  0  0  0  0  0  0  0  0  0
   -0.0458   -1.3000    0.0000 O   0  0  0  0  0  0  0  0  0  0  0  0
   -1.1750   -0.6542    0.0000 O   0  0  0  0  0  0  0  0  0  0  0  0
   -0.0458    1.3000    0.0000 O   0  0  0  0  0  0  0  0  0  0  0  0
   -1.1583    0.6625    0.0000 O   0  0  0  0  0  0  0  0  0  0  0  0
    1.6667   -0.3042    0.0000 C   0  0  0  0  0  0  0  0  0  0  0  0
    1.1250    1.2708    0.0000 C   0  0  0  0  0  0  0  0  0  0  0  0
    0.5042   -1.6167    0.0000 C   0  0  0  0  0  0  0  0  0  0  0  0
   -1.1750   -1.3000    0.0000 C   0  0  0  0  0  0  0  0  0  0  0  0
   -0.5958    1.6208    0.0000 C   0  0  0  0  0  0  0  0  0  0  0  0
   -1.7250    0.3458    0.0000 C   0  0  0  0  0  0  0  0  0  0  0  0
    2.2167   -0.6375    0.0000 C   0  0  0  0  0  0  0  0  0  0  0  0
    1.7000    1.5625    0.0000 C   0  0  0  0  0  0  0  0  0  0  0  0
    0.4917   -2.2750    0.0000 C   0  0  0  0  0  0  0  0  0  0  0  0
   -1.7458   -1.6000    0.0000 C   0  0  0  0  0  0  0  0  0  0  0  0
   -0.5875    2.2833    0.0000 C   0  0  0  0  0  0  0  0  0  0  0  0
   -2.2750    0.6958    0.0000 C   0  0  0  0  0  0  0  0  0  0  0  0
    1.0792   -1.3000    0.0000 O   0  0  0  0  0  0  0  0  0  0  0  0
   -0.6125   -1.6375    0.0000 O   0  0  0  0  0  0  0  0  0  0  0  0
    0.5667    1.6208    0.0000 O   0  0  0  0  0  0  0  0  0  0  0  0
   -1.1750    1.3000    0.0000 O   0  0  0  0  0  0  0  0  0  0  0  0
    1.6667    0.3458    0.0000 O   0  0  0  0  0  0  0  0  0  0  0  0
   -1.7333   -0.3042    0.0000 O   0  0  0  0  0  0  0  0  0  0  0  0
    3.3667   -0.6375    0.0000 N   0  0  0  0  0  0  0  0  0  0  0  0
    1.0375   -3.2625    0.0000 N   0  0  0  0  0  0  0  0  0  0  0  0
    2.8292    1.5333    0.0000 N   0  0  0  0  0  0  0  0  0  0  0  0
   -2.3333   -2.5667    0.0000 N   0  0  0  0  0  0  0  0  0  0  0  0
   -0.0083    3.2583    0.0000 N   0  0  0  0  0  0  0  0  0  0  0  0
   -2.8208    1.6958    0.0000 N   0  0  0  0  0  0  0  0  0  0  0  0
   -0.0125    2.6083    0.0000 C   0  0  0  0  0  0  0  0  0  0  0  0
    1.0375   -2.6042    0.0000 C   0  0  0  0  0  0  0  0  0  0  0  0
   -2.2625    1.3583    0.0000 C   0  0  0  0  0  0  0  0  0  0  0  0
    2.2542    1.2333    0.0000 C   0  0  0  0  0  0  0  0  0  0  0  0
   -1.7583   -2.2500    0.0000 C   0  0  0  0  0  0  0  0  0  0  0  0
    2.7917   -0.3167    0.0000 C   0  0  0  0  0  0  0  0  0  0  0  0
   -2.3083   -1.2750    0.0000 C   0  0  0  0  0  0  0  0  0  0  0  0
   -2.8500    0.3833    0.0000 C   0  0  0  0  0  0  0  0  0  0  0  0
    2.2292   -1.3000    0.0000 C   0  0  0  0  0  0  0  0  0  0  0  0
    1.7250    2.2083    0.0000 C   0  0  0  0  0  0  0  0  0  0  0  0
   -1.1458    2.6083    0.0000 C   0  0  0  0  0  0  0  0  0  0  0  0
   -0.0708   -2.5917    0.0000 C   0  0  0  0  0  0  0  0  0  0  0  0
    3.3792   -1.3000    0.0000 C   0  0  0  0  0  0  0  0  0  0  0  0
    2.8542    2.1833    0.0000 C   0  0  0  0  0  0  0  0  0  0  0  0
    0.4792   -3.5917    0.0000 C   0  0  0  0  0  0  0  0  0  0  0  0
   -2.8958   -2.2375    0.0000 C   0  0  0  0  0  0  0  0  0  0  0  0
   -0.5708    3.5958    0.0000 C   0  0  0  0  0  0  0  0  0  0  0  0
   -3.4083    1.3833    0.0000 C   0  0  0  0  0  0  0  0  0  0  0  0
   -2.8750   -1.5792    0.0000 C   0  0  0  0  0  0  0  0  0  0  0  0
   -3.4208    0.7208    0.0000 C   0  0  0  0  0  0  0  0  0  0  0  0
    2.8042   -1.6292    0.0000 C   0  0  0  0  0  0  0  0  0  0  0  0
    2.3000    2.5208    0.0000 C   0  0  0  0  0  0  0  0  0  0  0  0
   -1.1458    3.2708    0.0000 C   0  0  0  0  0  0  0  0  0  0  0  0
   -0.0833   -3.2542    0.0000 C   0  0  0  0  0  0  0  0  0  0  0  0
  2  1  1  0
  3  1  1  0
  4  2  1  0
  5  3  1  0
  6  5  1  0
  1  7  1  1
  3  8  1  1
  2  9  1  6
  4 10  1  1
  5 11  1  1
  6 12  1  6
 13  7  1  0
 14  8  1  0
 15  9  1  0
 16 10  1  0
 17 11  1  0
 18 12  1  0
 19 13  1  0
 20 14  1  0
 21 15  1  0
 22 16  1  0
 23 17  1  0
 24 18  1  0
 25 15  2  0
 26 16  2  0
 27 14  2  0
 28 17  2  0
 29 13  2  0
 30 18  2  0
 31 42  2  0
 32 38  2  0
 33 40  1  0
 34 41  2  0
 35 37  1  0
 36 39  1  0
 37 23  2  0
 38 21  1  0
 39 24  2  0
 40 20  2  0
 41 22  1  0
 42 19  1  0
 43 22  2  0
 44 24  1  0
 45 19  2  0
 46 20  1  0
 47 23  1  0
 48 21  2  0
 49 57  2  0
 50 58  1  0
 51 60  2  0
 52 55  2  0
 53 59  1  0
 54 56  1  0
 55 43  1  0
 56 44  2  0
 57 45  1  0
 58 46  2  0
 59 47  2  0
 60 48  1  0
  4  6  1  0
 31 49  1  0
 33 50  2  0
 32 51  1  0
 35 53  2  0
 34 52  1  0
 36 54  2  0
M  END


> <chembl_id>
CHEMBL1094982

> <chembl_pref_name>
INOSITOL NIACINATE
