
     RDKit          2D

 31 36  0  0  1  0  0  0  0  0999 V2000
   11.2194   -4.3664    0.0000 C   0  0  0  0  0  0  0  0  0  0  0  0
   10.5049   -3.9539    0.0000 C   0  0  0  0  0  0  0  0  0  0  0  0
    9.7904   -4.3664    0.0000 C   0  0  0  0  0  0  0  0  0  0  0  0
    9.7904   -5.1914    0.0000 C   0  0  0  0  0  0  0  0  0  0  0  0
   10.5049   -5.6039    0.0000 C   0  0  0  0  0  0  0  0  0  0  0  0
   11.2194   -5.1914    0.0000 C   0  0  0  0  0  0  0  0  0  0  0  0
   12.0039   -5.4464    0.0000 N   0  0  0  0  0  0  0  0  0  0  0  0
   12.4889   -4.7789    0.0000 C   0  0  0  0  0  0  0  0  0  0  0  0
   12.0040   -4.1115    0.0000 C   0  0  0  0  0  0  0  0  0  0  0  0
   12.3396   -3.3578    0.0000 C   0  0  0  0  0  0  0  0  0  0  0  0
   13.1600   -3.2716    0.0000 C   0  0  0  0  0  0  0  0  0  0  0  0
   13.6449   -3.9390    0.0000 N   0  0  0  0  0  0  0  0  0  0  0  0
   13.3094   -4.6927    0.0000 C   0  0  0  0  0  0  0  0  0  0  0  0
   14.4654   -3.8528    0.0000 C   0  0  0  0  0  0  0  0  0  0  0  0
   14.9504   -4.5202    0.0000 C   0  0  0  0  0  0  0  0  0  0  0  0
   14.6148   -5.2739    0.0000 C   0  0  0  0  0  0  0  0  0  0  0  0
   13.7943   -5.3601    0.0000 C   0  0  0  0  0  0  0  0  0  0  0  0
   12.2588   -6.2310    0.0000 C   0  0  0  0  0  0  0  0  0  0  0  0
   12.9014   -5.4934    0.0000 H   0  0  0  0  0  0  0  0  0  0  0  0
   12.8969   -3.9783    0.0000 H   0  0  0  0  0  0  0  0  0  0  0  0
   14.8010   -3.0991    0.0000 O   0  0  0  0  0  0  0  0  0  0  0  0
   15.7708   -4.4340    0.0000 C   0  0  0  0  0  0  0  0  0  0  0  0
   16.2558   -5.1015    0.0000 C   0  0  0  0  0  0  0  0  0  0  0  0
   15.0997   -5.9414    0.0000 H   0  0  0  0  0  0  0  0  0  0  0  0
   13.5725   -2.5571    0.0000 C   0  0  0  0  0  0  0  0  0  0  0  0
   11.5915   -3.3971    0.0000 C   0  0  0  0  0  0  0  0  0  0  0  0
   10.8092   -3.1351    0.0000 O   0  0  0  0  0  0  0  0  0  0  0  0
   10.6449   -2.3267    0.0000 C   0  0  0  0  0  0  0  0  0  0  0  0
    9.8626   -2.0647    0.0000 C   0  0  0  0  0  0  0  0  0  0  0  0
   11.2629   -1.7801    0.0000 O   0  0  0  0  0  0  0  0  0  0  0  0
    9.6911   -1.2577    0.0000 Cl  0  0  0  0  0  0  0  0  0  0  0  0
  1  2  1  0
  2  3  2  0
  3  4  1  0
  4  5  2  0
  5  6  1  0
  6  7  1  0
  1  6  2  0
  1  9  1  0
  7  8  1  0
 13  8  1  0
  8  9  1  0
  9 10  1  0
 10 11  1  0
 11 12  1  0
 12 14  1  0
 13 12  1  0
 17 13  1  0
 14 15  1  0
 15 16  1  0
 16 17  1  0
  7 18  1  0
  8 19  1  1
 13 20  1  6
 14 21  1  6
 15 22  1  1
 22 23  1  0
 16 24  1  6
 11 25  1  1
 16 25  1  0
  9 26  1  1
 26 25  1  0
 26 27  1  6
 27 28  1  0
 28 29  1  0
 28 30  2  0
 29 31  1  0
M  END


> <chembl_id>
CHEMBL3989762

> <chembl_pref_name>
LORAJMINE
