REMARK  Name = 
REMARK  3 active torsions:
REMARK  status: ('A' for Active; 'I' for Inactive)
REMARK    1  A    between atoms: S_1  and  C_2
REMARK    2  A    between atoms: N_3  and  N_4
REMARK    3  A    between atoms: C_5  and  C_7
REMARK                            x       y       z     vdW  Elec       q    Type
REMARK                         _______ _______ _______ _____ _____    ______ ____
ROOT
ATOM      1  N   UNL     1       0.963   1.121   0.000  0.00  0.00    +0.000 NA
ATOM      2  C   UNL     1       0.417   0.133   0.000  0.00  0.00    +0.000 C 
ATOM      3  O   UNL     1       0.963  -0.842   0.000  0.00  0.00    +0.000 OA
ENDROOT
BRANCH   1   4
ATOM      4  N   UNL     1       2.100   1.121   0.000  0.00  0.00    +0.000 NA
ATOM      5  C   UNL     1       2.654   0.133   0.000  0.00  0.00    +0.000 C 
ATOM      6  C   UNL     1       2.654   2.100   0.000  0.00  0.00    +0.000 C 
ATOM      7  C   UNL     1       4.338   1.121   0.000  0.00  0.00    +0.000 C 
ATOM      8  C   UNL     1       3.792   2.100   0.000  0.00  0.00    +0.000 C 
ATOM      9  C   UNL     1       3.792   0.133   0.000  0.00  0.00    +0.000 C 
ATOM     10  C   UNL     1       2.100   3.121   0.000  0.00  0.00    +0.000 C 
ATOM     11  C   UNL     1       2.100  -0.842   0.000  0.00  0.00    +0.000 C 
ENDBRANCH   1   4
BRANCH   2  14
ATOM     12  C   UNL     1      -2.408  -0.842   0.000  0.00  0.00    +0.000 A 
ATOM     13  C   UNL     1      -1.300  -0.842   0.000  0.00  0.00    +0.000 A 
ATOM     14  C   UNL     1      -0.721   0.133   0.000  0.00  0.00    +0.000 A 
ATOM     15  C   UNL     1      -2.996   0.133   0.000  0.00  0.00    +0.000 A 
ATOM     16  C   UNL     1      -1.300   1.121   0.000  0.00  0.00    +0.000 A 
ATOM     17  C   UNL     1      -2.408   1.121   0.000  0.00  0.00    +0.000 A 
ATOM     18 CL   UNL     1      -4.125   0.133   0.000  0.00  0.00    +0.000 Cl
BRANCH  12  19
ATOM     19  S   UNL     1      -2.996  -1.817   0.000  0.00  0.00    +0.000 S 
ATOM     20  O   UNL     1      -3.546  -2.837   0.000  0.00  0.00    +0.000 OA
ATOM     21  O   UNL     1      -1.983  -2.404   0.000  0.00  0.00    +0.000 OA
ATOM     22  N   UNL     1      -3.971  -1.267   0.000  0.00  0.00    +0.000 NA
ENDBRANCH  12  19
ENDBRANCH   2  14
TORSDOF 3
