REMARK  Name = 
REMARK  3 active torsions:
REMARK  status: ('A' for Active; 'I' for Inactive)
REMARK    1  A    between atoms: N_2  and  C_7
REMARK    2  A    between atoms: N_4  and  C_6
REMARK    3  A    between atoms: C_6  and  C_7
REMARK                            x       y       z     vdW  Elec       q    Type
REMARK                         _______ _______ _______ _____ _____    ______ ____
ROOT
ATOM      1  N   UNL     1      -2.158  -1.267   0.000  0.00  0.00    +0.000 NA
ATOM      2  C   UNL     1      -2.158  -2.079   0.000  0.00  0.00    +0.000 C 
ATOM      3  C   UNL     1      -2.733  -0.700   0.000  0.00  0.00    +0.000 C 
ATOM      4  C   UNL     1      -2.733  -2.654   0.000  0.00  0.00    +0.000 C 
ATOM      5  C   UNL     1      -3.550  -0.700   0.000  0.00  0.00    +0.000 C 
ATOM      6  C   UNL     1      -3.546  -2.654   0.000  0.00  0.00    +0.000 C 
ATOM      7  C   UNL     1      -4.133  -1.279   0.000  0.00  0.00    +0.000 C 
ATOM      8  C   UNL     1      -4.133  -2.079   0.000  0.00  0.00    +0.000 C 
ENDROOT
BRANCH   1   9
ATOM      9  C   UNL     1      -1.383  -0.979   0.000  0.00  0.00    +0.000 C 
BRANCH   9  10
ATOM     10  C   UNL     1      -0.733  -1.492   0.000  0.00  0.00    +0.000 C 
BRANCH  10  13
ATOM     11  C   UNL     1       0.642  -1.704   0.000  0.00  0.00    +0.000 C 
ATOM     12  N   UNL     1       1.400  -1.429   0.000  0.00  0.00    +0.000 NA
ATOM     13  N   UNL     1       0.017  -1.200   0.000  0.00  0.00    +0.000 NA
ATOM     14  N   UNL     1       0.512  -2.500   0.000  0.00  0.00    +0.000 NA
ENDBRANCH  10  13
ENDBRANCH   9  10
ENDBRANCH   1   9
TORSDOF 3
