REMARK  Name = 
REMARK  0 active torsions:
REMARK  status: ('A' for Active; 'I' for Inactive)
REMARK                            x       y       z     vdW  Elec       q    Type
REMARK                         _______ _______ _______ _____ _____    ______ ____
ROOT
ATOM      1  C   UNL     1      -5.381   2.261   0.000  0.00  0.00    +0.000 C 
ATOM      2  C   UNL     1      -5.964   2.844   0.000  0.00  0.00    +0.000 C 
ATOM      3  C   UNL     1      -6.789   2.844   0.000  0.00  0.00    +0.000 C 
ATOM      4  N   UNL     1      -7.373   2.261   0.000  0.00  0.00    +0.000 NA
ATOM      5  C   UNL     1      -7.373   1.436   0.000  0.00  0.00    +0.000 C 
ATOM      6  C   UNL     1      -6.789   0.852   0.000  0.00  0.00    +0.000 C 
ATOM      7  C   UNL     1      -5.964   0.852   0.000  0.00  0.00    +0.000 C 
ATOM      8  N   UNL     1      -5.381   1.436   0.000  0.00  0.00    +0.000 NA
ATOM      9  C   UNL     1      -4.666   1.023   0.000  0.00  0.00    +0.000 C 
ATOM     10  C   UNL     1      -3.952   1.436   0.000  0.00  0.00    +0.000 C 
ATOM     11  C   UNL     1      -3.952   2.261   0.000  0.00  0.00    +0.000 C 
ATOM     12  C   UNL     1      -4.666   2.673   0.000  0.00  0.00    +0.000 C 
ATOM     13  C   UNL     1      -8.087   1.023   0.000  0.00  0.00    +0.000 C 
ATOM     14  C   UNL     1      -8.802   1.436   0.000  0.00  0.00    +0.000 C 
ATOM     15  C   UNL     1      -8.802   2.261   0.000  0.00  0.00    +0.000 C 
ATOM     16  C   UNL     1      -8.087   2.673   0.000  0.00  0.00    +0.000 C 
ATOM     17  C   UNL     1      -5.945   1.817   0.000  0.00  0.00    +0.000 C 
ENDROOT
TORSDOF 0
