REMARK  Name = 
REMARK  5 active torsions:
REMARK  status: ('A' for Active; 'I' for Inactive)
REMARK    1  A    between atoms: S_1  and  C_4
REMARK    2  A    between atoms: S_1  and  N_6
REMARK    3  A    between atoms: S_2  and  C_3
REMARK    4  A    between atoms: N_6  and  C_7
REMARK    5  A    between atoms: C_7  and  C_13
REMARK                            x       y       z     vdW  Elec       q    Type
REMARK                         _______ _______ _______ _____ _____    ______ ____
ROOT
ATOM      1  S   UNL     1      -0.171  -0.554   0.000  0.00  0.00    +0.000 S 
ATOM      2  O   UNL     1      -0.171   0.483   0.000  0.00  0.00    +0.000 OA
ATOM      3  O   UNL     1      -0.171  -1.562   0.000  0.00  0.00    +0.000 OA
ENDROOT
BRANCH   1   5
ATOM      4  C   UNL     1       2.392   0.346   0.000  0.00  0.00    +0.000 A 
ATOM      5  C   UNL     1       0.867  -0.554   0.000  0.00  0.00    +0.000 A 
ATOM      6  C   UNL     1       1.354   0.346   0.000  0.00  0.00    +0.000 A 
ATOM      7  C   UNL     1       2.888  -0.554   0.000  0.00  0.00    +0.000 A 
ATOM      8  C   UNL     1       1.354  -1.429   0.000  0.00  0.00    +0.000 A 
ATOM      9  C   UNL     1       2.392  -1.429   0.000  0.00  0.00    +0.000 A 
ATOM     10 CL   UNL     1       3.917  -0.554   0.000  0.00  0.00    +0.000 Cl
BRANCH   4  11
ATOM     11  S   UNL     1       2.913   1.246   0.000  0.00  0.00    +0.000 S 
ATOM     12  O   UNL     1       2.004   1.762   0.000  0.00  0.00    +0.000 OA
ATOM     13  O   UNL     1       3.817   0.700   0.000  0.00  0.00    +0.000 OA
ATOM     14  N   UNL     1       3.454   2.146   0.000  0.00  0.00    +0.000 NA
ENDBRANCH   4  11
ENDBRANCH   1   5
BRANCH   1  15
ATOM     15  N   UNL     1      -1.208  -0.554   0.000  0.00  0.00    +0.000 NA
ATOM     16  C   UNL     1      -1.700   0.346   0.000  0.00  0.00    +0.000 C 
BRANCH  15  17
ATOM     17  C   UNL     1      -1.700  -1.429   0.000  0.00  0.00    +0.000 C 
BRANCH  17  18
ATOM     18  C   UNL     1      -2.733  -1.429   0.000  0.00  0.00    +0.000 C 
ATOM     19  O   UNL     1      -3.421  -0.662   0.000  0.00  0.00    +0.000 OA
ATOM     20  C   UNL     1      -2.233  -2.242   0.000  0.00  0.00    +0.000 C 
ATOM     21  C   UNL     1      -3.225  -2.300   0.000  0.00  0.00    +0.000 C 
ATOM     22  C   UNL     1      -4.346  -1.075   0.000  0.00  0.00    +0.000 C 
ATOM     23  C   UNL     1      -4.208  -2.079   0.000  0.00  0.00    +0.000 C 
ENDBRANCH  17  18
ENDBRANCH  15  17
ENDBRANCH   1  15
TORSDOF 5
