
     RDKit          2D

 17 18  0  0  0  0  0  0  0  0999 V2000
    2.6042    0.7208    0.0000 S   0  0  0  0  0  0  0  0  0  0  0  0
   -2.2708    0.7208    0.0000 S   0  0  0  0  0  0  0  0  0  0  0  0
    1.3792    0.0083    0.0000 C   0  0  0  0  0  0  0  0  0  0  0  0
   -1.0500    0.0083    0.0000 C   0  0  0  0  0  0  0  0  0  0  0  0
    0.1667    0.7208    0.0000 C   0  0  0  0  0  0  0  0  0  0  0  0
    1.3792   -1.4167    0.0000 C   0  0  0  0  0  0  0  0  0  0  0  0
   -1.0500   -1.4167    0.0000 C   0  0  0  0  0  0  0  0  0  0  0  0
    0.1667   -2.1375    0.0000 C   0  0  0  0  0  0  0  0  0  0  0  0
    3.4667    1.7708    0.0000 O   0  0  0  0  0  0  0  0  0  0  0  0
    1.7625    1.7333    0.0000 O   0  0  0  0  0  0  0  0  0  0  0  0
   -2.9208   -0.4792    0.0000 O   0  0  0  0  0  0  0  0  0  0  0  0
   -3.5958    1.4125    0.0000 O   0  0  0  0  0  0  0  0  0  0  0  0
   -1.5750    1.9625    0.0000 N   0  0  0  0  0  0  0  0  0  0  0  0
    3.8625    0.0083    0.0000 C   0  0  0  0  0  0  0  0  0  0  0  0
    2.6042   -2.1375    0.0000 C   0  0  0  0  0  0  0  0  0  0  0  0
   -2.6250   -2.1792    0.0000 C   0  0  0  0  0  0  0  0  0  0  0  0
    3.8625   -1.4167    0.0000 C   0  0  0  0  0  0  0  0  0  0  0  0
  2  4  1  0
  3  1  1  0
  4  5  2  0
  5  3  1  0
  6  3  2  0
  7  8  2  0
  8  6  1  0
  9  1  2  0
 10  1  2  0
 11  2  2  0
 12  2  2  0
 13  2  1  0
 14  1  1  0
 15 17  1  0
 16  7  1  0
 17 14  1  0
  6 15  1  0
  4  7  1  0
M  END


> <chembl_id>
CHEMBL1318341

> <chembl_pref_name>
METICRANE
