REMARK  Name = 
REMARK  6 active torsions:
REMARK  status: ('A' for Active; 'I' for Inactive)
REMARK    1  A    between atoms: C_1  and  C_9
REMARK    2  A    between atoms: C_2  and  C_8
REMARK    3  A    between atoms: C_3  and  C_7
REMARK    4  A    between atoms: C_8  and  O_15
REMARK    5  A    between atoms: C_9  and  O_16
REMARK    6  A    between atoms: O_16  and  C_23
REMARK                            x       y       z     vdW  Elec       q    Type
REMARK                         _______ _______ _______ _____ _____    ______ ____
ROOT
ATOM      1  C   UNL     1       5.379  -5.717   0.000  0.00  0.00    +0.000 C 
ATOM      2  C   UNL     1       4.167  -5.717   0.000  0.00  0.00    +0.000 C 
ATOM      3  C   UNL     1       4.787  -5.388   0.000  0.00  0.00    +0.000 C 
ATOM      4  C   UNL     1       5.379  -6.417   0.000  0.00  0.00    +0.000 C 
ATOM      5  C   UNL     1       4.167  -6.417   0.000  0.00  0.00    +0.000 C 
ATOM      6  N   UNL     1       4.779  -6.775   0.000  0.00  0.00    +0.000 NA
ATOM      7  C   UNL     1       6.004  -6.775   0.000  0.00  0.00    +0.000 C 
ATOM      8  C   UNL     1       3.562  -6.775   0.000  0.00  0.00    +0.000 C 
ENDROOT
BRANCH   3   9
ATOM      9  C   UNL     1       4.787  -4.292   0.000  0.00  0.00    +0.000 A 
ATOM     10  C   UNL     1       5.379  -3.954   0.000  0.00  0.00    +0.000 A 
ATOM     11  C   UNL     1       5.379  -3.242   0.000  0.00  0.00    +0.000 A 
ATOM     12 CL   UNL     1       5.942  -4.254   0.000  0.00  0.00    +0.000 Cl
ATOM     13  C   UNL     1       4.167  -3.954   0.000  0.00  0.00    +0.000 A 
ATOM     14 CL   UNL     1       5.967  -2.888   0.000  0.00  0.00    +0.000 Cl
ATOM     15  C   UNL     1       4.167  -3.242   0.000  0.00  0.00    +0.000 A 
ATOM     16  C   UNL     1       4.787  -2.879   0.000  0.00  0.00    +0.000 A 
ENDBRANCH   3   9
BRANCH   2  17
ATOM     17  C   UNL     1       3.562  -5.367   0.000  0.00  0.00    +0.000 C 
ATOM     18  O   UNL     1       3.554  -4.704   0.000  0.00  0.00    +0.000 OA
BRANCH  17  19
ATOM     19  O   UNL     1       2.967  -5.713   0.000  0.00  0.00    +0.000 OA
ATOM     20  C   UNL     1       2.354  -5.338   0.000  0.00  0.00    +0.000 C 
ENDBRANCH  17  19
ENDBRANCH   2  17
BRANCH   1  21
ATOM     21  C   UNL     1       6.004  -5.367   0.000  0.00  0.00    +0.000 C 
ATOM     22  O   UNL     1       6.004  -4.704   0.000  0.00  0.00    +0.000 OA
BRANCH  21  23
ATOM     23  O   UNL     1       6.604  -5.704   0.000  0.00  0.00    +0.000 OA
BRANCH  23  24
ATOM     24  C   UNL     1       7.204  -5.342   0.000  0.00  0.00    +0.000 C 
ATOM     25  C   UNL     1       7.787  -5.700   0.000  0.00  0.00    +0.000 C 
ENDBRANCH  23  24
ENDBRANCH  21  23
ENDBRANCH   1  21
TORSDOF 6
