REMARK  Name = 
REMARK  4 active torsions:
REMARK  status: ('A' for Active; 'I' for Inactive)
REMARK    1  A    between atoms: S_4  and  C_5
REMARK    2  A    between atoms: C_6  and  C_16
REMARK    3  A    between atoms: C_16  and  C_19
REMARK    4  A    between atoms: C_19  and  C_21
REMARK                            x       y       z     vdW  Elec       q    Type
REMARK                         _______ _______ _______ _____ _____    ______ ____
ROOT
ATOM      1  S   UNL     1       1.150   1.525   0.000  0.00  0.00    +0.000 S 
ATOM      2  N   UNL     1       2.217   0.921   0.000  0.00  0.00    +0.000 NA
ATOM      3  C   UNL     1       0.117   0.921   0.000  0.00  0.00    +0.000 A 
ATOM      4  C   UNL     1      -1.950   0.921   0.000  0.00  0.00    +0.000 A 
ATOM      5  C   UNL     1       2.217  -0.287   0.000  0.00  0.00    +0.000 C 
ATOM      6  C   UNL     1       0.117  -0.287   0.000  0.00  0.00    +0.000 A 
ATOM      7  N   UNL     1       1.150  -0.892   0.000  0.00  0.00    +0.000 NA
ATOM      8  C   UNL     1      -0.921   1.525   0.000  0.00  0.00    +0.000 A 
ATOM      9  C   UNL     1      -1.950  -0.287   0.000  0.00  0.00    +0.000 A 
ATOM     10  C   UNL     1      -0.921  -0.892   0.000  0.00  0.00    +0.000 A 
ATOM     11  O   UNL     1       0.217   2.362   0.000  0.00  0.00    +0.000 OA
ATOM     12  O   UNL     1       2.038   2.346   0.000  0.00  0.00    +0.000 OA
ATOM     13 CL   UNL     1      -3.288  -0.929   0.000  0.00  0.00    +0.000 Cl
ENDROOT
BRANCH   4  14
ATOM     14  S   UNL     1      -2.983   1.525   0.000  0.00  0.00    +0.000 S 
ATOM     15  O   UNL     1      -3.546   0.512   0.000  0.00  0.00    +0.000 OA
ATOM     16  O   UNL     1      -4.108   2.121   0.000  0.00  0.00    +0.000 OA
ATOM     17  N   UNL     1      -2.400   2.583   0.000  0.00  0.00    +0.000 NA
ENDBRANCH   4  14
BRANCH   5  18
ATOM     18  C   UNL     1       3.288  -0.892   0.000  0.00  0.00    +0.000 C 
ATOM     19  C   UNL     1       4.342  -0.287   0.000  0.00  0.00    +0.000 C 
BRANCH  18  20
ATOM     20  C   UNL     1       3.288  -2.125   0.000  0.00  0.00    +0.000 C 
ATOM     21  C   UNL     1       4.342  -2.717   0.000  0.00  0.00    +0.000 C 
BRANCH  20  22
ATOM     22  C   UNL     1       2.237  -2.767   0.000  0.00  0.00    +0.000 C 
ATOM     23  C   UNL     1       1.054  -2.125   0.000  0.00  0.00    +0.000 C 
ENDBRANCH  20  22
ENDBRANCH  18  20
ENDBRANCH   5  18
TORSDOF 4
