REMARK  Name = 
REMARK  0 active torsions:
REMARK  status: ('A' for Active; 'I' for Inactive)
REMARK                            x       y       z     vdW  Elec       q    Type
REMARK                         _______ _______ _______ _____ _____    ______ ____
ROOT
ATOM      1  N   UNL     1       7.117  -2.829   0.000  0.00  0.00    +0.000 NA
ATOM      2  N   UNL     1       7.832  -2.416   0.000  0.00  0.00    +0.000 NA
ATOM      3  C   UNL     1       7.832  -1.591   0.000  0.00  0.00    +0.000 A 
ATOM      4  N   UNL     1       7.117  -1.179   0.000  0.00  0.00    +0.000 NA
ATOM      5  N   UNL     1       7.117  -0.354   0.000  0.00  0.00    +0.000 NA
ATOM      6  C   UNL     1       7.832   0.059   0.000  0.00  0.00    +0.000 A 
ATOM      7  C   UNL     1       8.546  -0.354   0.000  0.00  0.00    +0.000 A 
ATOM      8  C   UNL     1       9.261   0.059   0.000  0.00  0.00    +0.000 A 
ATOM      9  C   UNL     1       9.975  -0.354   0.000  0.00  0.00    +0.000 A 
ATOM     10  C   UNL     1       9.975  -1.179   0.000  0.00  0.00    +0.000 A 
ATOM     11  C   UNL     1       9.261  -1.591   0.000  0.00  0.00    +0.000 A 
ATOM     12  C   UNL     1       8.546  -1.179   0.000  0.00  0.00    +0.000 A 
ENDROOT
TORSDOF 0
