
     RDKit          2D

 20 23  0  0  0  0  0  0  0  0999 V2000
   -0.4458    0.9083    0.0000 C   0  0  0  0  0  0  0  0  0  0  0  0
    0.8542    1.6458    0.0000 C   0  0  0  0  0  0  0  0  0  0  0  0
   -0.4458    2.2833    0.0000 C   0  0  0  0  0  0  0  0  0  0  0  0
    2.1917    1.3583    0.0000 C   0  0  0  0  0  0  0  0  0  0  0  0
    3.1625    2.2750    0.0000 N   0  0  0  0  0  0  0  0  0  0  0  0
    2.7792    0.1583    0.0000 N   0  0  0  0  0  0  0  0  0  0  0  0
    0.0542   -0.1542    0.0000 C   0  0  0  0  0  0  0  0  0  0  0  0
   -1.6625    0.9000    0.0000 C   0  0  0  0  0  0  0  0  0  0  0  0
    4.3417    1.6583    0.0000 C   0  0  0  0  0  0  0  0  0  0  0  0
    4.1000    0.3583    0.0000 C   0  0  0  0  0  0  0  0  0  0  0  0
   -0.5875   -1.3292    0.0000 C   0  0  0  0  0  0  0  0  0  0  0  0
    1.3542   -0.1542    0.0000 C   0  0  0  0  0  0  0  0  0  0  0  0
   -2.3375    2.0458    0.0000 C   0  0  0  0  0  0  0  0  0  0  0  0
   -2.3208   -0.2542    0.0000 C   0  0  0  0  0  0  0  0  0  0  0  0
   -3.6708    2.0333    0.0000 C   0  0  0  0  0  0  0  0  0  0  0  0
   -3.6625   -0.2625    0.0000 C   0  0  0  0  0  0  0  0  0  0  0  0
    0.0917   -2.4792    0.0000 C   0  0  0  0  0  0  0  0  0  0  0  0
    2.0875   -1.3000    0.0000 C   0  0  0  0  0  0  0  0  0  0  0  0
    1.4250   -2.4792    0.0000 C   0  0  0  0  0  0  0  0  0  0  0  0
   -4.3458    0.8833    0.0000 C   0  0  0  0  0  0  0  0  0  0  0  0
  2  1  1  0
  3  1  1  0
  4  2  1  0
  5  4  2  0
  6  4  1  0
  7  1  1  0
  8  1  1  0
  9  5  1  0
 10  6  1  0
 11  7  2  0
 12  7  1  0
 13  8  2  0
 14  8  1  0
 15 13  1  0
 16 14  2  0
 17 11  1  0
 18 12  2  0
 19 18  1  0
 20 16  1  0
  2  3  1  0
 15 20  2  0
 17 19  2  0
 10  9  1  0
M  END


> <chembl_id>
CHEMBL87045

> <chembl_pref_name>
CIFENLINE
