REMARK  Name = 
REMARK  7 active torsions:
REMARK  status: ('A' for Active; 'I' for Inactive)
REMARK    1  A    between atoms: C_1  and  C_2
REMARK    2  A    between atoms: C_1  and  O_5
REMARK    3  A    between atoms: C_2  and  O_4
REMARK    4  A    between atoms: C_3  and  C_6
REMARK    5  A    between atoms: C_3  and  C_7
REMARK    6  A    between atoms: O_4  and  C_14
REMARK    7  A    between atoms: O_5  and  C_23
REMARK                            x       y       z     vdW  Elec       q    Type
REMARK                         _______ _______ _______ _____ _____    ______ ____
ROOT
ATOM      1  C   UNL     1       1.188  -0.854   0.000  0.00  0.00    +0.000 A 
ATOM      2  C   UNL     1       1.188  -1.567   0.000  0.00  0.00    +0.000 A 
ATOM      3  C   UNL     1       1.812  -0.479   0.000  0.00  0.00    +0.000 A 
ATOM      4  C   UNL     1       2.429  -1.567   0.000  0.00  0.00    +0.000 A 
ATOM      5  C   UNL     1       1.812  -1.942   0.000  0.00  0.00    +0.000 A 
ATOM      6  C   UNL     1       2.429  -0.854   0.000  0.00  0.00    +0.000 A 
ENDROOT
BRANCH   1   7
ATOM      7  C   UNL     1       0.567  -0.504   0.000  0.00  0.00    +0.000 C 
ATOM      8  O   UNL     1       0.554   0.208   0.000  0.00  0.00    +0.000 OA
BRANCH   7   9
ATOM      9  C   UNL     1      -0.046  -0.867   0.000  0.00  0.00    +0.000 A 
ATOM     10  C   UNL     1      -0.675  -0.542   0.000  0.00  0.00    +0.000 A 
ATOM     11  C   UNL     1      -0.037  -1.579   0.000  0.00  0.00    +0.000 A 
ATOM     12  C   UNL     1      -1.258  -1.617   0.000  0.00  0.00    +0.000 A 
ATOM     13  C   UNL     1      -1.246  -0.892   0.000  0.00  0.00    +0.000 A 
ATOM     14  C   UNL     1      -0.633  -1.942   0.000  0.00  0.00    +0.000 A 
ATOM     15 CL   UNL     1      -1.850  -1.979   0.000  0.00  0.00    +0.000 Cl
ENDBRANCH   7   9
ENDBRANCH   1   7
BRANCH   4  16
ATOM     16  O   UNL     1       3.050  -1.917   0.000  0.00  0.00    +0.000 OA
BRANCH  16  17
ATOM     17  C   UNL     1       3.663  -1.554   0.000  0.00  0.00    +0.000 C 
ATOM     18  C   UNL     1       4.013  -0.942   0.000  0.00  0.00    +0.000 C 
ATOM     19  C   UNL     1       3.304  -0.942   0.000  0.00  0.00    +0.000 C 
BRANCH  17  20
ATOM     20  C   UNL     1       4.279  -1.904   0.000  0.00  0.00    +0.000 C 
ATOM     21  O   UNL     1       4.275  -2.625   0.000  0.00  0.00    +0.000 OA
BRANCH  20  22
ATOM     22  O   UNL     1       4.862  -1.504   0.000  0.00  0.00    +0.000 OA
BRANCH  22  23
ATOM     23  C   UNL     1       5.487  -1.854   0.000  0.00  0.00    +0.000 C 
ATOM     24  C   UNL     1       5.487  -2.542   0.000  0.00  0.00    +0.000 C 
ATOM     25  C   UNL     1       6.054  -1.492   0.000  0.00  0.00    +0.000 C 
ENDBRANCH  22  23
ENDBRANCH  20  22
ENDBRANCH  17  20
ENDBRANCH  16  17
ENDBRANCH   4  16
TORSDOF 7
