REMARK  Name = 
REMARK  10 active torsions:
REMARK  status: ('A' for Active; 'I' for Inactive)
REMARK    1  A    between atoms: C_1  and  C_3
REMARK    2  A    between atoms: C_1  and  O_5
REMARK    3  A    between atoms: C_2  and  C_4
REMARK    4  A    between atoms: C_2  and  O_10
REMARK    5  A    between atoms: C_3  and  O_11
REMARK    6  A    between atoms: O_5  and  C_9
REMARK    7  A    between atoms: O_10  and  C_25
REMARK    8  A    between atoms: O_11  and  C_24
REMARK    9  A    between atoms: C_19  and  C_24
REMARK   10  A    between atoms: C_19  and  C_25
REMARK                            x       y       z     vdW  Elec       q    Type
REMARK                         _______ _______ _______ _____ _____    ______ ____
ROOT
ATOM      1  C   UNL     1       0.000  -1.538   0.000  0.00  0.00    +0.000 C 
ATOM      2  O   UNL     1       0.467  -0.675   0.000  0.00  0.00    +0.000 OA
ENDROOT
BRANCH   1   3
ATOM      3  C   UNL     1      -1.038  -1.538   0.000  0.00  0.00    +0.000 C 
ATOM      4  C   UNL     1      -1.038  -2.454   0.000  0.00  0.00    +0.000 C 
ATOM      5  C   UNL     1      -1.983  -1.538   0.000  0.00  0.00    +0.000 C 
BRANCH   3   6
ATOM      6  O   UNL     1      -1.038  -0.600   0.000  0.00  0.00    +0.000 OA
BRANCH   6   7
ATOM      7  C   UNL     1      -1.808  -0.200   0.000  0.00  0.00    +0.000 A 
ATOM      8  C   UNL     1      -3.383   0.758   0.000  0.00  0.00    +0.000 A 
ATOM      9 CL   UNL     1      -4.171   1.208   0.000  0.00  0.00    +0.000 Cl
ATOM     10  C   UNL     1      -1.821   0.733   0.000  0.00  0.00    +0.000 A 
ATOM     11  C   UNL     1      -2.621  -0.613   0.000  0.00  0.00    +0.000 A 
ATOM     12  C   UNL     1      -3.383  -0.154   0.000  0.00  0.00    +0.000 A 
ATOM     13  C   UNL     1      -2.583   1.208   0.000  0.00  0.00    +0.000 A 
ENDBRANCH   6   7
ENDBRANCH   3   6
ENDBRANCH   1   3
BRANCH   1  14
ATOM     14  O   UNL     1       0.338  -2.329   0.000  0.00  0.00    +0.000 OA
BRANCH  14  15
ATOM     15  C   UNL     1       1.242  -2.329   0.000  0.00  0.00    +0.000 C 
BRANCH  15  16
ATOM     16  C   UNL     1       1.679  -1.538   0.000  0.00  0.00    +0.000 C 
BRANCH  16  17
ATOM     17  C   UNL     1       2.554  -1.538   0.000  0.00  0.00    +0.000 C 
BRANCH  17  18
ATOM     18  O   UNL     1       3.042  -0.717   0.000  0.00  0.00    +0.000 OA
BRANCH  18  19
ATOM     19  C   UNL     1       2.554   0.033   0.000  0.00  0.00    +0.000 C 
ATOM     20  O   UNL     1       1.604   0.046   0.000  0.00  0.00    +0.000 OA
BRANCH  19  21
ATOM     21  C   UNL     1       2.992   0.833   0.000  0.00  0.00    +0.000 A 
ATOM     22  N   UNL     1       2.954   2.421   0.000  0.00  0.00    +0.000 NA
ATOM     23  C   UNL     1       2.504   1.608   0.000  0.00  0.00    +0.000 A 
ATOM     24  C   UNL     1       3.904   0.833   0.000  0.00  0.00    +0.000 A 
ATOM     25  C   UNL     1       3.867   2.433   0.000  0.00  0.00    +0.000 A 
ATOM     26  C   UNL     1       4.342   1.658   0.000  0.00  0.00    +0.000 A 
ENDBRANCH  19  21
ENDBRANCH  18  19
ENDBRANCH  17  18
ENDBRANCH  16  17
ENDBRANCH  15  16
ENDBRANCH  14  15
ENDBRANCH   1  14
TORSDOF 10
