
     RDKit          2D

 24 25  0  0  0  0  0  0  0  0999 V2000
   -0.8083   -0.6167    0.0000 C   0  0  0  0  0  0  0  0  0  0  0  0
   -0.8083   -1.6167    0.0000 C   0  0  0  0  0  0  0  0  0  0  0  0
   -1.6833   -2.1042    0.0000 C   0  0  0  0  0  0  0  0  0  0  0  0
    0.0417   -0.2667    0.0000 N   0  0  0  0  0  0  0  0  0  0  0  0
   -1.6583   -0.0792    0.0000 O   0  0  0  0  0  0  0  0  0  0  0  0
    0.0417    0.6833    0.0000 C   0  0  0  0  0  0  0  0  0  0  0  0
   -1.6833   -3.0917    0.0000 C   0  0  0  0  0  0  0  0  0  0  0  0
    1.0167    2.0583    0.0000 N   0  0  0  0  0  0  0  0  0  0  0  0
    0.9250    1.0708    0.0000 C   0  0  0  0  0  0  0  0  0  0  0  0
    0.0542   -2.1042    0.0000 C   0  0  0  0  0  0  0  0  0  0  0  0
   -2.5458   -1.6167    0.0000 C   0  0  0  0  0  0  0  0  0  0  0  0
    0.0542   -3.0917    0.0000 C   0  0  0  0  0  0  0  0  0  0  0  0
    0.8750   -0.6292    0.0000 C   0  0  0  0  0  0  0  0  0  0  0  0
   -0.8083   -3.5875    0.0000 C   0  0  0  0  0  0  0  0  0  0  0  0
    2.0042    2.4958    0.0000 C   0  0  0  0  0  0  0  0  0  0  0  0
    0.3167    2.6250    0.0000 C   0  0  0  0  0  0  0  0  0  0  0  0
   -2.5458   -3.5875    0.0000 C   0  0  0  0  0  0  0  0  0  0  0  0
    1.7375   -0.1167    0.0000 C   0  0  0  0  0  0  0  0  0  0  0  0
    2.5667   -0.6292    0.0000 C   0  0  0  0  0  0  0  0  0  0  0  0
    2.7917    1.9583    0.0000 C   0  0  0  0  0  0  0  0  0  0  0  0
    0.3917    3.5958    0.0000 C   0  0  0  0  0  0  0  0  0  0  0  0
   -3.4125   -2.1042    0.0000 C   0  0  0  0  0  0  0  0  0  0  0  0
    3.4042   -0.1167    0.0000 C   0  0  0  0  0  0  0  0  0  0  0  0
   -3.4125   -3.0917    0.0000 C   0  0  0  0  0  0  0  0  0  0  0  0
  2  1  1  0
  3  2  2  0
  4  1  1  0
  5  1  2  0
  6  4  1  0
  7  3  1  0
  8  9  1  0
  9  6  1  0
 10  2  1  0
 11  3  1  0
 12 10  2  0
 13  4  1  0
 14 12  1  0
 15  8  1  0
 16  8  1  0
 17  7  1  0
 18 13  1  0
 19 18  1  0
 20 15  1  0
 21 16  1  0
 22 11  2  0
 23 19  1  0
 24 22  1  0
  7 14  2  0
 17 24  2  0
M  END


> <chembl_id>
CHEMBL2104200

> <chembl_pref_name>
BUNAFTINE
