REMARK  Name = 
REMARK  7 active torsions:
REMARK  status: ('A' for Active; 'I' for Inactive)
REMARK    1  A    between atoms: N_2  and  C_8
REMARK    2  A    between atoms: N_6  and  C_9
REMARK    3  A    between atoms: N_7  and  C_14
REMARK    4  A    between atoms: C_8  and  C_15
REMARK    5  A    between atoms: C_14  and  C_20
REMARK    6  A    between atoms: C_17  and  C_20
REMARK    7  A    between atoms: C_18  and  O_30
REMARK                            x       y       z     vdW  Elec       q    Type
REMARK                         _______ _______ _______ _____ _____    ______ ____
ROOT
ATOM      1  C   UNL     1      -0.571   2.871   0.000  0.00  0.00    +0.000 A 
ATOM      2  N   UNL     1      -0.996   2.246   0.000  0.00  0.00    +0.000 N 
ATOM      3  N   UNL     1      -1.012   3.471   0.000  0.00  0.00    +0.000 NA
ATOM      4  C   UNL     1      -1.733   2.471   0.000  0.00  0.00    +0.000 A 
ATOM      5  C   UNL     1      -1.733   3.208   0.000  0.00  0.00    +0.000 A 
ATOM      6  N   UNL     1       0.179   2.883   0.000  0.00  0.00    +0.000 NA
ATOM      7  C   UNL     1      -2.396   2.083   0.000  0.00  0.00    +0.000 A 
ATOM      8  C   UNL     1      -2.400   3.596   0.000  0.00  0.00    +0.000 A 
ATOM      9  C   UNL     1      -3.025   2.433   0.000  0.00  0.00    +0.000 A 
ATOM     10  C   UNL     1      -3.046   3.208   0.000  0.00  0.00    +0.000 A 
ENDROOT
BRANCH   6  12
ATOM     11  N   UNL     1       1.354   0.983   0.000  0.00  0.00    +0.000 NA
ATOM     12  C   UNL     1       0.567   2.246   0.000  0.00  0.00    +0.000 C 
ATOM     13  C   UNL     1       0.229   1.600   0.000  0.00  0.00    +0.000 C 
ATOM     14  C   UNL     1       1.329   2.271   0.000  0.00  0.00    +0.000 C 
ATOM     15  C   UNL     1       0.629   0.946   0.000  0.00  0.00    +0.000 C 
ATOM     16  C   UNL     1       1.704   1.621   0.000  0.00  0.00    +0.000 C 
BRANCH  11  17
ATOM     17  C   UNL     1       1.754   0.333   0.000  0.00  0.00    +0.000 C 
BRANCH  17  18
ATOM     18  C   UNL     1       1.400  -0.329   0.000  0.00  0.00    +0.000 C 
BRANCH  18  19
ATOM     19  C   UNL     1       1.829  -0.992   0.000  0.00  0.00    +0.000 A 
ATOM     20  C   UNL     1       2.554  -2.279   0.000  0.00  0.00    +0.000 A 
ATOM     21  C   UNL     1       1.429  -1.679   0.000  0.00  0.00    +0.000 A 
ATOM     22  C   UNL     1       2.538  -0.967   0.000  0.00  0.00    +0.000 A 
ATOM     23  C   UNL     1       1.829  -2.300   0.000  0.00  0.00    +0.000 A 
ATOM     24  C   UNL     1       2.954  -1.629   0.000  0.00  0.00    +0.000 A 
BRANCH  20  25
ATOM     25  O   UNL     1       2.987  -2.938   0.000  0.00  0.00    +0.000 OA
ATOM     26  C   UNL     1       2.629  -3.592   0.000  0.00  0.00    +0.000 C 
ENDBRANCH  20  25
ENDBRANCH  18  19
ENDBRANCH  17  18
ENDBRANCH  11  17
ENDBRANCH   6  12
BRANCH   2  27
ATOM     27  C   UNL     1      -0.713   1.525   0.000  0.00  0.00    +0.000 C 
BRANCH  27  28
ATOM     28  C   UNL     1      -1.171   0.958   0.000  0.00  0.00    +0.000 A 
ATOM     29  C   UNL     1      -2.158  -0.200   0.000  0.00  0.00    +0.000 A 
ATOM     30  F   UNL     1      -2.633  -0.779   0.000  0.00  0.00    +0.000 F 
ATOM     31  C   UNL     1      -1.921   1.083   0.000  0.00  0.00    +0.000 A 
ATOM     32  C   UNL     1      -0.908   0.237   0.000  0.00  0.00    +0.000 A 
ATOM     33  C   UNL     1      -2.408   0.487   0.000  0.00  0.00    +0.000 A 
ATOM     34  C   UNL     1      -1.396  -0.329   0.000  0.00  0.00    +0.000 A 
ENDBRANCH  27  28
ENDBRANCH   2  27
TORSDOF 7
