REMARK  Name = 
REMARK  9 active torsions:
REMARK  status: ('A' for Active; 'I' for Inactive)
REMARK    1  A    between atoms: C_5  and  N_7
REMARK    2  A    between atoms: C_8  and  C_9
REMARK    3  A    between atoms: C_9  and  N_11
REMARK    4  A    between atoms: N_14  and  C_17
REMARK    5  A    between atoms: C_17  and  C_18
REMARK    6  A    between atoms: C_18  and  C_19
REMARK    7  A    between atoms: C_19  and  O_21
REMARK    8  A    between atoms: O_21  and  C_22
REMARK    9  A    between atoms: C_27  and  O_28
REMARK                            x       y       z     vdW  Elec       q    Type
REMARK                         _______ _______ _______ _____ _____    ______ ____
ROOT
ATOM      1  N   UNL     1       4.292  -2.452   0.000  0.00  0.00    +0.000 NA
ATOM      2  C   UNL     1       4.293  -3.276   0.000  0.00  0.00    +0.000 C 
ATOM      3  C   UNL     1       5.005  -3.686   0.000  0.00  0.00    +0.000 C 
ATOM      4  N   UNL     1       5.720  -3.274   0.000  0.00  0.00    +0.000 NA
ATOM      5  C   UNL     1       5.719  -2.448   0.000  0.00  0.00    +0.000 C 
ATOM      6  C   UNL     1       5.002  -2.034   0.000  0.00  0.00    +0.000 C 
ENDROOT
BRANCH   1   7
ATOM      7  C   UNL     1       3.576  -2.042   0.000  0.00  0.00    +0.000 C 
BRANCH   7   9
ATOM      8  N   UNL     1       2.147  -2.048   0.000  0.00  0.00    +0.000 NA
ATOM      9  C   UNL     1       2.863  -2.458   0.000  0.00  0.00    +0.000 C 
ATOM     10  O   UNL     1       2.866  -3.283   0.000  0.00  0.00    +0.000 OA
BRANCH   8  15
ATOM     11  C   UNL     1       0.007  -2.467   0.000  0.00  0.00    +0.000 A 
ATOM     12  C   UNL     1       0.006  -3.294   0.000  0.00  0.00    +0.000 A 
ATOM     13  C   UNL     1       0.721  -3.707   0.000  0.00  0.00    +0.000 A 
ATOM     14  C   UNL     1       1.437  -3.293   0.000  0.00  0.00    +0.000 A 
ATOM     15  C   UNL     1       1.434  -2.463   0.000  0.00  0.00    +0.000 A 
ATOM     16  C   UNL     1       0.719  -2.054   0.000  0.00  0.00    +0.000 A 
ATOM     17  C   UNL     1       0.716  -1.229   0.000  0.00  0.00    +0.000 C 
ATOM     18  C   UNL     1       2.152  -3.705   0.000  0.00  0.00    +0.000 C 
ENDBRANCH   8  15
ENDBRANCH   7   9
ENDBRANCH   1   7
BRANCH   4  19
ATOM     19  C   UNL     1       6.434  -3.686   0.000  0.00  0.00    +0.000 C 
BRANCH  19  20
ATOM     20  C   UNL     1       7.149  -3.274   0.000  0.00  0.00    +0.000 C 
ATOM     21  O   UNL     1       7.149  -2.449   0.000  0.00  0.00    +0.000 OA
BRANCH  20  22
ATOM     22  C   UNL     1       7.863  -3.686   0.000  0.00  0.00    +0.000 C 
BRANCH  22  23
ATOM     23  O   UNL     1       8.578  -3.274   0.000  0.00  0.00    +0.000 OA
BRANCH  23  24
ATOM     24  C   UNL     1       9.292  -3.686   0.000  0.00  0.00    +0.000 A 
ATOM     25  C   UNL     1       9.289  -4.509   0.000  0.00  0.00    +0.000 A 
ATOM     26  C   UNL     1      10.002  -4.922   0.000  0.00  0.00    +0.000 A 
ATOM     27  C   UNL     1      10.718  -4.509   0.000  0.00  0.00    +0.000 A 
ATOM     28  C   UNL     1      10.715  -3.680   0.000  0.00  0.00    +0.000 A 
ATOM     29  C   UNL     1      10.001  -3.271   0.000  0.00  0.00    +0.000 A 
BRANCH  29  30
ATOM     30  O   UNL     1       9.997  -2.446   0.000  0.00  0.00    +0.000 OA
ATOM     31  C   UNL     1      10.709  -2.030   0.000  0.00  0.00    +0.000 C 
ENDBRANCH  29  30
ENDBRANCH  23  24
ENDBRANCH  22  23
ENDBRANCH  20  22
ENDBRANCH  19  20
ENDBRANCH   4  19
TORSDOF 9
