REMARK  Name = 
REMARK  8 active torsions:
REMARK  status: ('A' for Active; 'I' for Inactive)
REMARK    1  A    between atoms: C_1  and  C_6
REMARK    2  A    between atoms: C_2  and  O_11
REMARK    3  A    between atoms: C_3  and  O_10
REMARK    4  A    between atoms: C_6  and  C_17
REMARK    5  A    between atoms: N_7  and  C_13
REMARK    6  A    between atoms: C_8  and  O_12
REMARK    7  A    between atoms: C_13  and  C_14
REMARK    8  A    between atoms: C_14  and  C_17
REMARK                            x       y       z     vdW  Elec       q    Type
REMARK                         _______ _______ _______ _____ _____    ______ ____
ROOT
ATOM      1  C   UNL     1      -0.758   0.346   0.000  0.00  0.00    +0.000 A 
ATOM      2  C   UNL     1      -0.771  -0.679   0.000  0.00  0.00    +0.000 A 
ATOM      3  C   UNL     1      -1.658   0.875   0.000  0.00  0.00    +0.000 A 
ATOM      4  C   UNL     1      -1.683  -1.188   0.000  0.00  0.00    +0.000 A 
ATOM      5  C   UNL     1      -2.571   0.375   0.000  0.00  0.00    +0.000 A 
ATOM      6  C   UNL     1      -2.571  -0.654   0.000  0.00  0.00    +0.000 A 
ENDROOT
BRANCH   1   7
ATOM      7  C   UNL     1       0.129   0.833   0.000  0.00  0.00    +0.000 C 
ATOM      8  O   UNL     1       0.129   1.837   0.000  0.00  0.00    +0.000 OA
BRANCH   7   9
ATOM      9  C   UNL     1       0.967   0.300   0.000  0.00  0.00    +0.000 C 
BRANCH   9  10
ATOM     10  C   UNL     1       0.925  -0.700   0.000  0.00  0.00    +0.000 C 
BRANCH  10  11
ATOM     11  C   UNL     1       1.817  -1.292   0.000  0.00  0.00    +0.000 C 
BRANCH  11  12
ATOM     12  N   UNL     1       2.692  -0.787   0.000  0.00  0.00    +0.000 NA
ATOM     13  C   UNL     1       3.642  -1.238   0.000  0.00  0.00    +0.000 C 
ATOM     14  C   UNL     1       2.829   0.200   0.000  0.00  0.00    +0.000 C 
ATOM     15  C   UNL     1       4.342  -0.479   0.000  0.00  0.00    +0.000 C 
ATOM     16  C   UNL     1       3.804   0.438   0.000  0.00  0.00    +0.000 C 
ENDBRANCH  11  12
ENDBRANCH  10  11
ENDBRANCH   9  10
ENDBRANCH   7   9
ENDBRANCH   1   7
BRANCH   3  17
ATOM     17  O   UNL     1      -1.658   1.733   0.000  0.00  0.00    +0.000 OA
ATOM     18  C   UNL     1      -0.771   2.233   0.000  0.00  0.00    +0.000 C 
ENDBRANCH   3  17
BRANCH   2  19
ATOM     19  O   UNL     1       0.117  -1.204   0.000  0.00  0.00    +0.000 OA
ATOM     20  C   UNL     1       0.100  -2.229   0.000  0.00  0.00    +0.000 C 
ENDBRANCH   2  19
BRANCH   6  21
ATOM     21  O   UNL     1      -3.483  -1.167   0.000  0.00  0.00    +0.000 OA
ATOM     22  C   UNL     1      -4.346  -0.642   0.000  0.00  0.00    +0.000 C 
ENDBRANCH   6  21
TORSDOF 8
