REMARK  Name = 
REMARK  2 active torsions:
REMARK  status: ('A' for Active; 'I' for Inactive)
REMARK    1  A    between atoms: C_1  and  C_4
REMARK    2  A    between atoms: C_4  and  C_5
REMARK                            x       y       z     vdW  Elec       q    Type
REMARK                         _______ _______ _______ _____ _____    ______ ____
ROOT
ATOM      1  C   UNL     1      -0.725  -1.325   0.000  0.00  0.00    +0.000 C 
ENDROOT
BRANCH   1   2
ATOM      2  C   UNL     1      -1.346  -0.992   0.000  0.00  0.00    +0.000 A 
ATOM      3  C   UNL     1      -1.946  -1.363   0.000  0.00  0.00    +0.000 A 
ATOM      4  C   UNL     1      -1.363  -0.279   0.000  0.00  0.00    +0.000 A 
ATOM      5  C   UNL     1      -1.996   0.050   0.000  0.00  0.00    +0.000 A 
ATOM      6  C   UNL     1      -2.571  -1.025   0.000  0.00  0.00    +0.000 A 
ATOM      7  C   UNL     1      -2.596  -0.312   0.000  0.00  0.00    +0.000 A 
ENDBRANCH   1   2
BRANCH   1   8
ATOM      8  C   UNL     1      -0.121  -0.950   0.000  0.00  0.00    +0.000 C 
ATOM      9  N   UNL     1       0.100  -0.279   0.000  0.00  0.00    +0.000 NA
ATOM     10  N   UNL     1       0.450  -1.367   0.000  0.00  0.00    +0.000 NA
ATOM     11  C   UNL     1       0.812  -0.287   0.000  0.00  0.00    +0.000 C 
ATOM     12  C   UNL     1       1.025  -0.954   0.000  0.00  0.00    +0.000 C 
ENDBRANCH   1   8
TORSDOF 2
