REMARK  Name = 
REMARK  8 active torsions:
REMARK  status: ('A' for Active; 'I' for Inactive)
REMARK    1  A    between atoms: C_1  and  C_6
REMARK    2  A    between atoms: C_2  and  C_10
REMARK    3  A    between atoms: C_3  and  C_9
REMARK    4  A    between atoms: C_4  and  C_11
REMARK    5  A    between atoms: C_6  and  O_15
REMARK    6  A    between atoms: N_8  and  C_12
REMARK    7  A    between atoms: C_10  and  O_20
REMARK    8  A    between atoms: O_15  and  C_23
REMARK                            x       y       z     vdW  Elec       q    Type
REMARK                         _______ _______ _______ _____ _____    ______ ____
ROOT
ATOM      1  C   UNL     1      -0.362   0.800   0.000  0.00  0.00    +0.000 C 
ATOM      2  C   UNL     1       0.454  -0.588   0.000  0.00  0.00    +0.000 C 
ATOM      3  C   UNL     1      -0.362  -0.129   0.000  0.00  0.00    +0.000 C 
ATOM      4  C   UNL     1       1.279  -0.129   0.000  0.00  0.00    +0.000 C 
ATOM      5  C   UNL     1       0.454   1.246   0.000  0.00  0.00    +0.000 C 
ATOM      6  N   UNL     1       1.267   0.800   0.000  0.00  0.00    +0.000 NA
ATOM      7  C   UNL     1       0.442   2.221   0.000  0.00  0.00    +0.000 C 
ENDROOT
BRANCH   3   8
ATOM      8  C   UNL     1      -1.183  -0.562   0.000  0.00  0.00    +0.000 A 
ATOM      9  C   UNL     1      -2.000  -1.938   0.000  0.00  0.00    +0.000 A 
ATOM     10  C   UNL     1      -1.183  -1.479   0.000  0.00  0.00    +0.000 A 
ATOM     11  C   UNL     1      -1.996  -0.092   0.000  0.00  0.00    +0.000 A 
ATOM     12  C   UNL     1      -2.825  -1.517   0.000  0.00  0.00    +0.000 A 
ATOM     13  C   UNL     1      -2.821  -0.542   0.000  0.00  0.00    +0.000 A 
BRANCH   9  14
ATOM     14  N   UNL     1      -2.008  -2.917   0.000  0.00  0.00    +0.000 N 
ATOM     15  O   UNL     1      -1.196  -3.354   0.000  0.00  0.00    +0.000 OA
ATOM     16  O   UNL     1      -2.825  -3.354   0.000  0.00  0.00    +0.000 OA
ENDBRANCH   9  14
ENDBRANCH   3   8
BRANCH   1  17
ATOM     17  C   UNL     1      -1.163   1.262   0.000  0.00  0.00    +0.000 C 
ATOM     18  O   UNL     1      -1.971   0.796   0.000  0.00  0.00    +0.000 OA
BRANCH  17  19
ATOM     19  O   UNL     1      -1.188   2.208   0.000  0.00  0.00    +0.000 OA
BRANCH  19  20
ATOM     20  C   UNL     1      -2.008   2.658   0.000  0.00  0.00    +0.000 C 
ATOM     21  C   UNL     1      -2.808   2.183   0.000  0.00  0.00    +0.000 C 
ATOM     22  C   UNL     1      -2.062   3.596   0.000  0.00  0.00    +0.000 C 
ENDBRANCH  19  20
ENDBRANCH  17  19
ENDBRANCH   1  17
BRANCH   2  23
ATOM     23  C   UNL     1       0.442  -1.525   0.000  0.00  0.00    +0.000 C 
ATOM     24  O   UNL     1       1.254  -1.967   0.000  0.00  0.00    +0.000 OA
BRANCH  23  25
ATOM     25  O   UNL     1      -0.338  -1.992   0.000  0.00  0.00    +0.000 OA
ATOM     26  C   UNL     1      -0.333  -2.938   0.000  0.00  0.00    +0.000 C 
ENDBRANCH  23  25
ENDBRANCH   2  23
BRANCH   4  27
ATOM     27  C   UNL     1       2.079  -0.554   0.000  0.00  0.00    +0.000 C 
ATOM     28  N   UNL     1       2.900  -0.992   0.000  0.00  0.00    +0.000 NA
ENDBRANCH   4  27
TORSDOF 8
