REMARK  Name = 
REMARK  9 active torsions:
REMARK  status: ('A' for Active; 'I' for Inactive)
REMARK    1  A    between atoms: C_1  and  C_2
REMARK    2  A    between atoms: N_4  and  C_6
REMARK    3  A    between atoms: N_4  and  C_13
REMARK    4  A    between atoms: C_6  and  C_9
REMARK    5  A    between atoms: N_8  and  C_9
REMARK    6  A    between atoms: N_8  and  C_15
REMARK    7  A    between atoms: N_8  and  C_16
REMARK    8  A    between atoms: C_13  and  C_18
REMARK    9  A    between atoms: C_18  and  C_19
REMARK                            x       y       z     vdW  Elec       q    Type
REMARK                         _______ _______ _______ _____ _____    ______ ____
ROOT
ATOM      1  C   UNL     1      -0.808  -0.617   0.000  0.00  0.00    +0.000 C 
ATOM      2  N   UNL     1       0.042  -0.267   0.000  0.00  0.00    +0.000 N 
ATOM      3  O   UNL     1      -1.658  -0.079   0.000  0.00  0.00    +0.000 OA
ENDROOT
BRANCH   1   4
ATOM      4  C   UNL     1      -0.808  -1.617   0.000  0.00  0.00    +0.000 A 
ATOM      5  C   UNL     1      -1.683  -2.104   0.000  0.00  0.00    +0.000 A 
ATOM      6  C   UNL     1      -1.683  -3.092   0.000  0.00  0.00    +0.000 A 
ATOM      7  C   UNL     1       0.054  -2.104   0.000  0.00  0.00    +0.000 A 
ATOM      8  C   UNL     1      -2.546  -1.617   0.000  0.00  0.00    +0.000 A 
ATOM      9  C   UNL     1       0.054  -3.092   0.000  0.00  0.00    +0.000 A 
ATOM     10  C   UNL     1      -0.808  -3.587   0.000  0.00  0.00    +0.000 A 
ATOM     11  C   UNL     1      -2.546  -3.587   0.000  0.00  0.00    +0.000 A 
ATOM     12  C   UNL     1      -3.413  -2.104   0.000  0.00  0.00    +0.000 A 
ATOM     13  C   UNL     1      -3.413  -3.092   0.000  0.00  0.00    +0.000 A 
ENDBRANCH   1   4
BRANCH   2  14
ATOM     14  C   UNL     1       0.042   0.683   0.000  0.00  0.00    +0.000 C 
BRANCH  14  15
ATOM     15  C   UNL     1       0.925   1.071   0.000  0.00  0.00    +0.000 C 
BRANCH  15  16
ATOM     16  N   UNL     1       1.017   2.058   0.000  0.00  0.00    +0.000 NA
BRANCH  16  17
ATOM     17  C   UNL     1       2.004   2.496   0.000  0.00  0.00    +0.000 C 
ATOM     18  C   UNL     1       2.792   1.958   0.000  0.00  0.00    +0.000 C 
ENDBRANCH  16  17
BRANCH  16  19
ATOM     19  C   UNL     1       0.317   2.625   0.000  0.00  0.00    +0.000 C 
ATOM     20  C   UNL     1       0.392   3.596   0.000  0.00  0.00    +0.000 C 
ENDBRANCH  16  19
ENDBRANCH  15  16
ENDBRANCH  14  15
ENDBRANCH   2  14
BRANCH   2  21
ATOM     21  C   UNL     1       0.875  -0.629   0.000  0.00  0.00    +0.000 C 
BRANCH  21  22
ATOM     22  C   UNL     1       1.738  -0.117   0.000  0.00  0.00    +0.000 C 
BRANCH  22  23
ATOM     23  C   UNL     1       2.567  -0.629   0.000  0.00  0.00    +0.000 C 
ATOM     24  C   UNL     1       3.404  -0.117   0.000  0.00  0.00    +0.000 C 
ENDBRANCH  22  23
ENDBRANCH  21  22
ENDBRANCH   2  21
TORSDOF 9
