REMARK  Name = 
REMARK  6 active torsions:
REMARK  status: ('A' for Active; 'I' for Inactive)
REMARK    1  A    between atoms: S_1  and  C_3
REMARK    2  A    between atoms: S_1  and  N_4
REMARK    3  A    between atoms: C_2  and  N_4
REMARK    4  A    between atoms: C_5  and  C_10
REMARK    5  A    between atoms: C_10  and  C_16
REMARK    6  A    between atoms: C_11  and  C_16
REMARK                            x       y       z     vdW  Elec       q    Type
REMARK                         _______ _______ _______ _____ _____    ______ ____
ROOT
ATOM      1  C   UNL     1       1.029  -0.204   0.000  0.00  0.00    +0.000 A 
ATOM      2  C   UNL     1       1.025   0.508   0.000  0.00  0.00    +0.000 A 
ATOM      3  C   UNL     1       1.704  -0.425   0.000  0.00  0.00    +0.000 A 
ATOM      4  S   UNL     1       1.700   0.725   0.000  0.00  0.00    +0.000 S 
ATOM      5  C   UNL     1       2.117   0.158   0.000  0.00  0.00    +0.000 A 
ENDROOT
BRANCH   1   6
ATOM      6  S   UNL     1       0.417  -0.562   0.000  0.00  0.00    +0.000 S 
ATOM      7  O   UNL     1       0.767  -1.179   0.000  0.00  0.00    +0.000 OA
ATOM      8  O   UNL     1       0.062   0.050   0.000  0.00  0.00    +0.000 OA
BRANCH   6   9
ATOM      9  N   UNL     1      -0.196  -0.917   0.000  0.00  0.00    +0.000 NA
BRANCH   9  10
ATOM     10  C   UNL     1      -0.196  -1.625   0.000  0.00  0.00    +0.000 A 
ATOM     11  C   UNL     1      -0.771  -2.038   0.000  0.00  0.00    +0.000 A 
ATOM     12  N   UNL     1       0.154  -2.704   0.000  0.00  0.00    +0.000 NA
ATOM     13  O   UNL     1       0.375  -2.029   0.000  0.00  0.00    +0.000 OA
ATOM     14  C   UNL     1      -0.546  -2.712   0.000  0.00  0.00    +0.000 A 
ATOM     15 CL   UNL     1      -1.446  -1.817   0.000  0.00  0.00    +0.000 Cl
ATOM     16  C   UNL     1      -0.963  -3.279   0.000  0.00  0.00    +0.000 C 
ENDBRANCH   9  10
ENDBRANCH   6   9
ENDBRANCH   1   6
BRANCH   2  17
ATOM     17  C   UNL     1       0.417   0.858   0.000  0.00  0.00    +0.000 C 
ATOM     18  O   UNL     1       0.417   1.571   0.000  0.00  0.00    +0.000 OA
BRANCH  17  19
ATOM     19  C   UNL     1      -0.196   0.500   0.000  0.00  0.00    +0.000 C 
BRANCH  19  20
ATOM     20  C   UNL     1      -0.808   0.858   0.000  0.00  0.00    +0.000 A 
ATOM     21  C   UNL     1      -2.033   0.858   0.000  0.00  0.00    +0.000 A 
ATOM     22  C   UNL     1      -2.033   1.571   0.000  0.00  0.00    +0.000 A 
ATOM     23  C   UNL     1      -1.421   0.508   0.000  0.00  0.00    +0.000 A 
ATOM     24  C   UNL     1      -0.808   1.562   0.000  0.00  0.00    +0.000 A 
ATOM     25  C   UNL     1      -1.421   1.921   0.000  0.00  0.00    +0.000 A 
ATOM     26  O   UNL     1      -2.708   1.788   0.000  0.00  0.00    +0.000 OA
ATOM     27  O   UNL     1      -2.708   0.646   0.000  0.00  0.00    +0.000 OA
ATOM     28  C   UNL     1      -3.125   1.212   0.000  0.00  0.00    +0.000 C 
ATOM     29  C   UNL     1      -0.196   1.921   0.000  0.00  0.00    +0.000 C 
ENDBRANCH  19  20
ENDBRANCH  17  19
ENDBRANCH   2  17
TORSDOF 6
