REMARK  Name = 
REMARK  1 active torsions:
REMARK  status: ('A' for Active; 'I' for Inactive)
REMARK    1  A    between atoms: C_2  and  N_3
REMARK                            x       y       z     vdW  Elec       q    Type
REMARK                         _______ _______ _______ _____ _____    ______ ____
ROOT
ATOM      1  C   UNL     1       4.367  -4.067   0.000  0.00  0.00    +0.000 A 
ATOM      2  C   UNL     1       4.725  -3.454   0.000  0.00  0.00    +0.000 A 
ATOM      3  C   UNL     1       4.725  -4.688   0.000  0.00  0.00    +0.000 A 
ATOM      4 CL   UNL     1       4.354  -5.304   0.000  0.00  0.00    +0.000 Cl
ATOM      5 CL   UNL     1       4.367  -2.829   0.000  0.00  0.00    +0.000 Cl
ATOM      6  C   UNL     1       5.779  -4.067   0.000  0.00  0.00    +0.000 A 
ATOM      7  C   UNL     1       5.438  -4.688   0.000  0.00  0.00    +0.000 A 
ATOM      8  C   UNL     1       5.438  -3.454   0.000  0.00  0.00    +0.000 A 
ENDROOT
BRANCH   1  10
ATOM      9  C   UNL     1       3.304  -3.454   0.000  0.00  0.00    +0.000 C 
ATOM     10  N   UNL     1       3.650  -4.067   0.000  0.00  0.00    +0.000 NA
ATOM     11  N   UNL     1       3.517  -2.788   0.000  0.00  0.00    +0.000 NA
ATOM     12  N   UNL     1       2.592  -3.454   0.000  0.00  0.00    +0.000 NA
ATOM     13  C   UNL     1       2.942  -2.375   0.000  0.00  0.00    +0.000 C 
ATOM     14  C   UNL     1       2.375  -2.779   0.000  0.00  0.00    +0.000 C 
ENDBRANCH   1  10
TORSDOF 1
