REMARK  Name = 
REMARK  9 active torsions:
REMARK  status: ('A' for Active; 'I' for Inactive)
REMARK    1  A    between atoms: C_1  and  C_2
REMARK    2  A    between atoms: C_3  and  C_11
REMARK    3  A    between atoms: C_4  and  C_12
REMARK    4  A    between atoms: C_5  and  O_9
REMARK    5  A    between atoms: N_6  and  C_22
REMARK    6  A    between atoms: O_9  and  C_11
REMARK    7  A    between atoms: C_12  and  O_21
REMARK    8  A    between atoms: C_20  and  O_21
REMARK    9  A    between atoms: C_22  and  C_23
REMARK                            x       y       z     vdW  Elec       q    Type
REMARK                         _______ _______ _______ _____ _____    ______ ____
ROOT
ATOM      1  C   UNL     1       2.454  -3.629   0.000  0.00  0.00    +0.000 A 
ATOM      2  C   UNL     1       2.454  -4.338   0.000  0.00  0.00    +0.000 A 
ATOM      3  C   UNL     1       1.817  -3.288   0.000  0.00  0.00    +0.000 A 
ATOM      4  C   UNL     1       1.817  -4.688   0.000  0.00  0.00    +0.000 A 
ATOM      5  C   UNL     1       1.217  -3.629   0.000  0.00  0.00    +0.000 A 
ATOM      6  C   UNL     1       1.217  -4.338   0.000  0.00  0.00    +0.000 A 
ENDROOT
BRANCH   1   7
ATOM      7  C   UNL     1       3.079  -3.288   0.000  0.00  0.00    +0.000 C 
ATOM      8  N   UNL     1       3.692  -3.629   0.000  0.00  0.00    +0.000 NA
ATOM      9  O   UNL     1       3.092  -2.587   0.000  0.00  0.00    +0.000 OA
BRANCH   8  10
ATOM     10  C   UNL     1       4.292  -3.288   0.000  0.00  0.00    +0.000 C 
BRANCH  10  12
ATOM     11  N   UNL     1       5.504  -3.288   0.000  0.00  0.00    +0.000 NA
ATOM     12  C   UNL     1       4.904  -3.629   0.000  0.00  0.00    +0.000 C 
ATOM     13  C   UNL     1       6.117  -3.629   0.000  0.00  0.00    +0.000 C 
ATOM     14  C   UNL     1       4.904  -4.329   0.000  0.00  0.00    +0.000 C 
ATOM     15  C   UNL     1       6.117  -4.338   0.000  0.00  0.00    +0.000 C 
ATOM     16  C   UNL     1       5.504  -4.688   0.000  0.00  0.00    +0.000 C 
ENDBRANCH  10  12
ENDBRANCH   8  10
ENDBRANCH   1   7
BRANCH   2  17
ATOM     17  O   UNL     1       3.079  -4.700   0.000  0.00  0.00    +0.000 OA
BRANCH  17  18
ATOM     18  C   UNL     1       3.079  -5.400   0.000  0.00  0.00    +0.000 C 
BRANCH  18  19
ATOM     19  C   UNL     1       3.692  -5.725   0.000  0.00  0.00    +0.000 C 
ATOM     20  F   UNL     1       3.337  -6.338   0.000  0.00  0.00    +0.000 F 
ATOM     21  F   UNL     1       4.042  -6.338   0.000  0.00  0.00    +0.000 F 
ATOM     22  F   UNL     1       4.292  -5.354   0.000  0.00  0.00    +0.000 F 
ENDBRANCH  18  19
ENDBRANCH  17  18
ENDBRANCH   2  17
BRANCH   5  23
ATOM     23  O   UNL     1       0.604  -3.275   0.000  0.00  0.00    +0.000 OA
BRANCH  23  24
ATOM     24  C   UNL     1       0.004  -3.629   0.000  0.00  0.00    +0.000 C 
BRANCH  24  25
ATOM     25  C   UNL     1      -0.613  -3.292   0.000  0.00  0.00    +0.000 C 
ATOM     26  F   UNL     1      -0.263  -2.679   0.000  0.00  0.00    +0.000 F 
ATOM     27  F   UNL     1      -0.971  -2.679   0.000  0.00  0.00    +0.000 F 
ATOM     28  F   UNL     1      -1.221  -3.663   0.000  0.00  0.00    +0.000 F 
ENDBRANCH  24  25
ENDBRANCH  23  24
ENDBRANCH   5  23
TORSDOF 9
