REMARK  Name = 
REMARK  4 active torsions:
REMARK  status: ('A' for Active; 'I' for Inactive)
REMARK    1  A    between atoms: N_1  and  C_20
REMARK    2  A    between atoms: N_11  and  C_14
REMARK    3  A    between atoms: C_14  and  C_15
REMARK    4  A    between atoms: C_20  and  C_21
REMARK                            x       y       z     vdW  Elec       q    Type
REMARK                         _______ _______ _______ _____ _____    ______ ____
ROOT
ATOM      1  N   UNL     1       1.986  -7.520   0.000  0.00  0.00    +0.000 NA
ATOM      2  C   UNL     1       2.398  -6.939   0.000  0.00  0.00    +0.000 C 
ATOM      3  C   UNL     1       2.337  -5.986   0.000  0.00  0.00    +0.000 C 
ATOM      4  C   UNL     1       2.887  -5.550   0.000  0.00  0.00    +0.000 C 
ATOM      5  C   UNL     1       2.756  -6.354   0.000  0.00  0.00    +0.000 C 
ATOM      6  C   UNL     1       2.803  -7.341   0.000  0.00  0.00    +0.000 C 
ATOM      7  C   UNL     1       3.705  -5.447   0.000  0.00  0.00    +0.000 C 
ATOM      8  C   UNL     1       3.860  -4.636   0.000  0.00  0.00    +0.000 C 
ATOM      9  C   UNL     1       3.136  -4.239   0.000  0.00  0.00    +0.000 C 
ATOM     10  C   UNL     1       2.535  -4.804   0.000  0.00  0.00    +0.000 C 
ATOM     11  N   UNL     1       1.291  -6.789   0.000  0.00  0.00    +0.000 NA
ATOM     12  C   UNL     1       1.796  -6.364   0.000  0.00  0.00    +0.000 C 
ATOM     13  C   UNL     1       1.418  -5.987   0.000  0.00  0.00    +0.000 C 
ENDROOT
BRANCH  11  14
ATOM     14  C   UNL     1       0.885  -7.507   0.000  0.00  0.00    +0.000 C 
BRANCH  14  15
ATOM     15  C   UNL     1       0.060  -7.515   0.000  0.00  0.00    +0.000 C 
ATOM     16  C   UNL     1      -0.650  -7.934   0.000  0.00  0.00    +0.000 C 
ATOM     17  C   UNL     1      -0.658  -7.109   0.000  0.00  0.00    +0.000 C 
ENDBRANCH  14  15
ENDBRANCH  11  14
BRANCH   1  18
ATOM     18  C   UNL     1       1.298  -7.976   0.000  0.00  0.00    +0.000 C 
BRANCH  18  19
ATOM     19  C   UNL     1       1.349  -8.799   0.000  0.00  0.00    +0.000 C 
ATOM     20  C   UNL     1       1.805  -9.487   0.000  0.00  0.00    +0.000 C 
ATOM     21  C   UNL     1       0.982  -9.538   0.000  0.00  0.00    +0.000 C 
ENDBRANCH  18  19
ENDBRANCH   1  18
TORSDOF 4
