
     RDKit          2D

 20 19  0  0  1  0  0  0  0  0999 V2000
  -13.5527    3.2885    0.0000 O   0  0  0  0  0  0  0  0  0  0  0  0
  -12.8383    3.7010    0.0000 C   0  0  0  0  0  0  0  0  0  0  0  0
  -12.1238    3.2885    0.0000 C   0  0  0  0  0  0  0  0  0  0  0  0
  -11.4093    3.7010    0.0000 C   0  0  0  0  0  0  0  0  0  0  0  0
  -10.6948    3.2885    0.0000 C   0  0  0  0  0  0  0  0  0  0  0  0
   -9.9804    3.7010    0.0000 O   0  0  0  0  0  0  0  0  0  0  0  0
  -14.3777    3.2885    0.0000 N   0  0  0  0  0  0  0  0  0  0  0  0
  -14.7902    2.5741    0.0000 O   0  0  0  0  0  0  0  0  0  0  0  0
  -14.7902    4.0030    0.0000 O   0  0  0  0  0  0  0  0  0  0  0  0
  -12.1238    2.4635    0.0000 O   0  0  0  0  0  0  0  0  0  0  0  0
  -11.4093    4.5260    0.0000 O   0  0  0  0  0  0  0  0  0  0  0  0
  -10.6948    4.9385    0.0000 N   0  0  0  0  0  0  0  0  0  0  0  0
  -10.6948    5.7635    0.0000 O   0  0  0  0  0  0  0  0  0  0  0  0
   -9.9804    4.5260    0.0000 O   0  0  0  0  0  0  0  0  0  0  0  0
  -11.4093    2.0510    0.0000 N   0  0  0  0  0  0  0  0  0  0  0  0
  -11.4093    1.2260    0.0000 O   0  0  0  0  0  0  0  0  0  0  0  0
  -10.6948    2.4635    0.0000 O   0  0  0  0  0  0  0  0  0  0  0  0
   -9.2659    3.2885    0.0000 N   0  0  0  0  0  0  0  0  0  0  0  0
   -8.5514    3.7010    0.0000 O   0  0  0  0  0  0  0  0  0  0  0  0
   -9.2659    2.4635    0.0000 O   0  0  0  0  0  0  0  0  0  0  0  0
  1  2  1  0
  2  3  1  0
  3  4  1  0
  4  5  1  0
  5  6  1  0
  1  7  1  0
  7  8  2  0
  7  9  1  0
  3 10  1  1
  4 11  1  6
 11 12  1  0
 12 13  1  0
 12 14  2  0
 10 15  1  0
 15 16  1  0
 15 17  2  0
  6 18  1  0
 18 19  1  0
 18 20  2  0
M  CHG  8   7   1   9  -1  12   1  13  -1  15   1  16  -1  18   1  19  -1
M  END


> <chembl_id>
CHEMBL2107583

> <chembl_pref_name>
ERYTHRITYL TETRANITRATE
