REMARK  Name = 
REMARK  10 active torsions:
REMARK  status: ('A' for Active; 'I' for Inactive)
REMARK    1  A    between atoms: C_5  and  C_7
REMARK    2  A    between atoms: C_7  and  C_15
REMARK    3  A    between atoms: C_10  and  O_29
REMARK    4  A    between atoms: C_10  and  O_30
REMARK    5  A    between atoms: C_13  and  C_18
REMARK    6  A    between atoms: C_15  and  O_29
REMARK    7  A    between atoms: C_16  and  C_20
REMARK    8  A    between atoms: C_17  and  C_21
REMARK    9  A    between atoms: C_20  and  O_28
REMARK   10  A    between atoms: C_21  and  O_30
REMARK                            x       y       z     vdW  Elec       q    Type
REMARK                         _______ _______ _______ _____ _____    ______ ____
ROOT
ATOM      1  C   UNL     1      11.431   3.300   0.000  0.00  0.00    +0.000 C 
ATOM      2  C   UNL     1       8.574   3.300   0.000  0.00  0.00    +0.000 C 
ATOM      3  C   UNL     1      10.717   3.712   0.000  0.00  0.00    +0.000 C 
ATOM      4  C   UNL     1       9.288   3.712   0.000  0.00  0.00    +0.000 C 
ATOM      5  C   UNL     1      10.717   4.537   0.000  0.00  0.00    +0.000 C 
ATOM      6  C   UNL     1       9.288   4.537   0.000  0.00  0.00    +0.000 C 
ATOM      7  C   UNL     1      10.003   4.950   0.000  0.00  0.00    +0.000 C 
ATOM      8  N   UNL     1      10.003   3.300   0.000  0.00  0.00    +0.000 NA
ENDROOT
BRANCH   7  12
ATOM      9  C   UNL     1       9.288   7.013   0.000  0.00  0.00    +0.000 A 
ATOM     10  C   UNL     1       9.288   6.188   0.000  0.00  0.00    +0.000 A 
ATOM     11  C   UNL     1      10.003   7.425   0.000  0.00  0.00    +0.000 A 
ATOM     12  C   UNL     1      10.003   5.775   0.000  0.00  0.00    +0.000 A 
ATOM     13  C   UNL     1      10.717   7.013   0.000  0.00  0.00    +0.000 A 
ATOM     14  C   UNL     1      10.717   6.188   0.000  0.00  0.00    +0.000 A 
ATOM     15 CL   UNL     1      11.431   7.425   0.000  0.00  0.00    +0.000 Cl
ATOM     16 CL   UNL     1      11.431   5.775   0.000  0.00  0.00    +0.000 Cl
ENDBRANCH   7  12
BRANCH   5  17
ATOM     17  C   UNL     1      11.431   4.950   0.000  0.00  0.00    +0.000 C 
ATOM     18  O   UNL     1      11.916   5.617   0.000  0.00  0.00    +0.000 OA
BRANCH  17  20
ATOM     19  C   UNL     1      12.861   4.950   0.000  0.00  0.00    +0.000 C 
ATOM     20  O   UNL     1      12.146   4.537   0.000  0.00  0.00    +0.000 OA
ENDBRANCH  17  20
ENDBRANCH   5  17
BRANCH   6  21
ATOM     21  C   UNL     1       8.574   4.950   0.000  0.00  0.00    +0.000 C 
ATOM     22  O   UNL     1       8.574   5.775   0.000  0.00  0.00    +0.000 OA
BRANCH  21  23
ATOM     23  O   UNL     1       7.859   4.537   0.000  0.00  0.00    +0.000 OA
BRANCH  23  24
ATOM     24  C   UNL     1       7.145   4.950   0.000  0.00  0.00    +0.000 C 
BRANCH  24  25
ATOM     25  O   UNL     1       6.430   4.537   0.000  0.00  0.00    +0.000 OA
BRANCH  25  26
ATOM     26  C   UNL     1       5.716   4.950   0.000  0.00  0.00    +0.000 C 
ATOM     27  O   UNL     1       5.716   5.775   0.000  0.00  0.00    +0.000 OA
BRANCH  26  28
ATOM     28  C   UNL     1       5.001   4.537   0.000  0.00  0.00    +0.000 C 
BRANCH  28  30
ATOM     29  C   UNL     1       3.572   4.537   0.000  0.00  0.00    +0.000 C 
ATOM     30  C   UNL     1       4.287   4.950   0.000  0.00  0.00    +0.000 C 
ENDBRANCH  28  30
ENDBRANCH  26  28
ENDBRANCH  25  26
ENDBRANCH  24  25
ENDBRANCH  23  24
ENDBRANCH  21  23
ENDBRANCH   6  21
TORSDOF 10
