
     RDKit          2D

 24 26  0  0  0  0  0  0  0  0999 V2000
    0.6792    0.0375    0.0000 C   0  0  0  0  0  0  0  0  0  0  0  0
    0.0167    0.4625    0.0000 C   0  0  0  0  0  0  0  0  0  0  0  0
    0.6792   -0.5042    0.0000 C   0  0  0  0  0  0  0  0  0  0  0  0
    4.0375    0.0625    0.0000 C   0  0  0  0  0  0  0  0  0  0  0  0
    2.5542    0.4625    0.0000 N   0  0  0  0  0  0  0  0  0  0  0  0
    3.1792    0.0625    0.0000 C   0  0  0  0  0  0  0  0  0  0  0  0
    1.8917    0.0375    0.0000 C   0  0  0  0  0  0  0  0  0  0  0  0
    1.2917    0.4458    0.0000 C   0  0  0  0  0  0  0  0  0  0  0  0
    0.0167    1.1583    0.0000 C   0  0  0  0  0  0  0  0  0  0  0  0
   -0.6083    0.0833    0.0000 C   0  0  0  0  0  0  0  0  0  0  0  0
    0.0792   -0.8750    0.0000 C   0  0  0  0  0  0  0  0  0  0  0  0
    1.2750   -0.8750    0.0000 C   0  0  0  0  0  0  0  0  0  0  0  0
    4.4042   -0.5250    0.0000 C   0  0  0  0  0  0  0  0  0  0  0  0
    4.4042    0.6833    0.0000 C   0  0  0  0  0  0  0  0  0  0  0  0
    3.1792    0.6958    0.0000 C   0  0  0  0  0  0  0  0  0  0  0  0
    0.0792   -1.5792    0.0000 C   0  0  0  0  0  0  0  0  0  0  0  0
    1.2750   -1.5792    0.0000 C   0  0  0  0  0  0  0  0  0  0  0  0
   -0.6083    1.5458    0.0000 C   0  0  0  0  0  0  0  0  0  0  0  0
   -1.2208    0.4625    0.0000 C   0  0  0  0  0  0  0  0  0  0  0  0
    5.0625   -0.5250    0.0000 C   0  0  0  0  0  0  0  0  0  0  0  0
    5.0917    0.6833    0.0000 C   0  0  0  0  0  0  0  0  0  0  0  0
    0.6792   -1.9500    0.0000 C   0  0  0  0  0  0  0  0  0  0  0  0
   -1.2208    1.1583    0.0000 C   0  0  0  0  0  0  0  0  0  0  0  0
    5.4375    0.0458    0.0000 C   0  0  0  0  0  0  0  0  0  0  0  0
  2  1  1  0
  3  1  1  0
  4  6  1  0
  5  7  1  0
  6  5  1  0
  7  8  1  0
  8  1  1  0
  9  2  1  0
 10  2  2  0
 11  3  1  0
 12  3  2  0
 13  4  1  0
 14  4  2  0
 15  6  1  0
 16 11  2  0
 17 12  1  0
 18  9  2  0
 19 10  1  0
 20 13  2  0
 21 14  1  0
 22 17  2  0
 23 19  2  0
 24 21  2  0
 22 16  1  0
 23 18  1  0
 24 20  1  0
M  END


> <chembl_id>
CHEMBL254832

> <chembl_pref_name>
FENDILINE
