MODEL 1
REMARK VINA RESULT:      -9.3      0.000      0.000
REMARK  Name = 
REMARK  10 active torsions:
REMARK  status: ('A' for Active; 'I' for Inactive)
REMARK    1  A    between atoms: C_1  and  C_3
REMARK    2  A    between atoms: C_1  and  O_5
REMARK    3  A    between atoms: C_2  and  C_4
REMARK    4  A    between atoms: C_2  and  O_10
REMARK    5  A    between atoms: C_3  and  O_11
REMARK    6  A    between atoms: O_5  and  C_9
REMARK    7  A    between atoms: O_10  and  C_25
REMARK    8  A    between atoms: O_11  and  C_24
REMARK    9  A    between atoms: C_19  and  C_24
REMARK   10  A    between atoms: C_19  and  C_25
REMARK                            x       y       z     vdW  Elec       q    Type
REMARK                         _______ _______ _______ _____ _____    ______ ____
ROOT
ATOM      1  C   UNL     1     139.573 115.465 163.391  0.00  0.00    +0.000 C 
ATOM      2  O   UNL     1     140.370 115.996 163.607  0.00  0.00    +0.000 OA
ENDROOT
BRANCH   1   3
ATOM      3  C   UNL     1     138.791 115.448 164.073  0.00  0.00    +0.000 C 
ATOM      4  C   UNL     1     138.791 114.532 164.050  0.00  0.00    +0.000 C 
ATOM      5  C   UNL     1     138.079 115.431 164.694  0.00  0.00    +0.000 C 
BRANCH   3   6
ATOM      6  O   UNL     1     138.791 116.385 164.097  0.00  0.00    +0.000 OA
BRANCH   6   7
ATOM      7  C   UNL     1     138.021 116.785 164.095  0.00  0.00    +0.000 A 
ATOM      8  C   UNL     1     136.396 117.649 164.213  0.00  0.00    +0.000 A 
ATOM      9 CL   UNL     1     135.594 118.071 164.246  0.00  0.00    +0.000 Cl
ATOM     10  C   UNL     1     137.680 117.093 164.908  0.00  0.00    +0.000 A 
ATOM     11  C   UNL     1     137.503 116.937 163.360  0.00  0.00    +0.000 A 
ATOM     12  C   UNL     1     136.719 117.353 163.413  0.00  0.00    +0.000 A 
ATOM     13  C   UNL     1     136.890 117.514 164.975  0.00  0.00    +0.000 A 
ENDBRANCH   6   7
ENDBRANCH   3   6
ENDBRANCH   1   3
BRANCH   1  14
ATOM     14  O   UNL     1     139.420 114.992 162.689  0.00  0.00    +0.000 OA
BRANCH  14  15
ATOM     15  C   UNL     1     140.112 114.986 162.107  0.00  0.00    +0.000 C 
BRANCH  15  16
ATOM     16  C   UNL     1     139.982 114.652 161.277  0.00  0.00    +0.000 C 
BRANCH  16  17
ATOM     17  C   UNL     1     140.676 114.517 160.762  0.00  0.00    +0.000 C 
BRANCH  17  18
ATOM     18  O   UNL     1     140.797 115.024 159.963  0.00  0.00    +0.000 OA
BRANCH  18  19
ATOM     19  C   UNL     1     141.327 114.661 159.340  0.00  0.00    +0.000 C 
ATOM     20  O   UNL     1     141.700 113.790 159.405  0.00  0.00    +0.000 OA
BRANCH  19  21
ATOM     21  C   UNL     1     141.523 115.155 158.599  0.00  0.00    +0.000 A 
ATOM     22  N   UNL     1     141.509 115.329 157.020  0.00  0.00    +0.000 NA
ATOM     23  C   UNL     1     141.307 114.823 157.773  0.00  0.00    +0.000 A 
ATOM     24  C   UNL     1     141.928 115.965 158.706  0.00  0.00    +0.000 A 
ATOM     25  C   UNL     1     141.914 116.141 157.115  0.00  0.00    +0.000 A 
ATOM     26  C   UNL     1     142.124 116.462 157.940  0.00  0.00    +0.000 A 
ENDBRANCH  19  21
ENDBRANCH  18  19
ENDBRANCH  17  18
ENDBRANCH  16  17
ENDBRANCH  15  16
ENDBRANCH  14  15
ENDBRANCH   1  14
TORSDOF 10
ENDMDL
MODEL 2
REMARK VINA RESULT:      -9.2      2.210      2.708
REMARK  Name = 
REMARK  10 active torsions:
REMARK  status: ('A' for Active; 'I' for Inactive)
REMARK    1  A    between atoms: C_1  and  C_3
REMARK    2  A    between atoms: C_1  and  O_5
REMARK    3  A    between atoms: C_2  and  C_4
REMARK    4  A    between atoms: C_2  and  O_10
REMARK    5  A    between atoms: C_3  and  O_11
REMARK    6  A    between atoms: O_5  and  C_9
REMARK    7  A    between atoms: O_10  and  C_25
REMARK    8  A    between atoms: O_11  and  C_24
REMARK    9  A    between atoms: C_19  and  C_24
REMARK   10  A    between atoms: C_19  and  C_25
REMARK                            x       y       z     vdW  Elec       q    Type
REMARK                         _______ _______ _______ _____ _____    ______ ____
ROOT
ATOM      1  C   UNL     1     140.119 113.736 163.860  0.00  0.00    +0.000 C 
ATOM      2  O   UNL     1     140.577 114.545 164.173  0.00  0.00    +0.000 OA
ENDROOT
BRANCH   1   3
ATOM      3  C   UNL     1     139.878 113.004 164.555  0.00  0.00    +0.000 C 
ATOM      4  C   UNL     1     140.769 112.839 164.691  0.00  0.00    +0.000 C 
ATOM      5  C   UNL     1     139.658 112.338 165.189  0.00  0.00    +0.000 C 
BRANCH   3   6
ATOM      6  O   UNL     1     138.966 113.173 164.417  0.00  0.00    +0.000 OA
BRANCH   6   7
ATOM      7  C   UNL     1     138.471 113.298 165.118  0.00  0.00    +0.000 A 
ATOM      8  C   UNL     1     137.402 113.681 166.571  0.00  0.00    +0.000 A 
ATOM      9 CL   UNL     1     136.880 113.847 167.294  0.00  0.00    +0.000 Cl
ATOM     10  C   UNL     1     138.091 114.141 165.246  0.00  0.00    +0.000 A 
ATOM     11  C   UNL     1     138.283 112.672 165.754  0.00  0.00    +0.000 A 
ATOM     12  C   UNL     1     137.768 112.854 166.457  0.00  0.00    +0.000 A 
ATOM     13  C   UNL     1     137.570 114.337 165.950  0.00  0.00    +0.000 A 
ENDBRANCH   6   7
ENDBRANCH   3   6
ENDBRANCH   1   3
BRANCH   1  14
ATOM     14  O   UNL     1     139.877 113.534 163.059  0.00  0.00    +0.000 OA
BRANCH  14  15
ATOM     15  C   UNL     1     140.363 113.956 162.424  0.00  0.00    +0.000 C 
BRANCH  15  16
ATOM     16  C   UNL     1     140.026 114.022 161.589  0.00  0.00    +0.000 C 
BRANCH  16  17
ATOM     17  C   UNL     1     140.539 113.823 160.908  0.00  0.00    +0.000 C 
BRANCH  17  18
ATOM     18  O   UNL     1     140.643 114.433 160.181  0.00  0.00    +0.000 OA
BRANCH  18  19
ATOM     19  C   UNL     1     141.159 114.157 159.504  0.00  0.00    +0.000 C 
ATOM     20  O   UNL     1     141.492 113.271 159.420  0.00  0.00    +0.000 OA
BRANCH  19  21
ATOM     21  C   UNL     1     141.380 114.760 158.856  0.00  0.00    +0.000 A 
ATOM     22  N   UNL     1     141.415 115.180 157.324  0.00  0.00    +0.000 NA
ATOM     23  C   UNL     1     141.188 114.564 157.982  0.00  0.00    +0.000 A 
ATOM     24  C   UNL     1     141.785 115.539 159.102  0.00  0.00    +0.000 A 
ATOM     25  C   UNL     1     141.821 115.964 157.559  0.00  0.00    +0.000 A 
ATOM     26  C   UNL     1     142.006 116.148 158.430  0.00  0.00    +0.000 A 
ENDBRANCH  19  21
ENDBRANCH  18  19
ENDBRANCH  17  18
ENDBRANCH  16  17
ENDBRANCH  15  16
ENDBRANCH  14  15
ENDBRANCH   1  14
TORSDOF 10
ENDMDL
MODEL 3
REMARK VINA RESULT:      -9.1      3.180      3.953
REMARK  Name = 
REMARK  10 active torsions:
REMARK  status: ('A' for Active; 'I' for Inactive)
REMARK    1  A    between atoms: C_1  and  C_3
REMARK    2  A    between atoms: C_1  and  O_5
REMARK    3  A    between atoms: C_2  and  C_4
REMARK    4  A    between atoms: C_2  and  O_10
REMARK    5  A    between atoms: C_3  and  O_11
REMARK    6  A    between atoms: O_5  and  C_9
REMARK    7  A    between atoms: O_10  and  C_25
REMARK    8  A    between atoms: O_11  and  C_24
REMARK    9  A    between atoms: C_19  and  C_24
REMARK   10  A    between atoms: C_19  and  C_25
REMARK                            x       y       z     vdW  Elec       q    Type
REMARK                         _______ _______ _______ _____ _____    ______ ____
ROOT
ATOM      1  C   UNL     1     139.921 113.190 162.925  0.00  0.00    +0.000 C 
ATOM      2  O   UNL     1     139.837 112.251 162.651  0.00  0.00    +0.000 OA
ENDROOT
BRANCH   1   3
ATOM      3  C   UNL     1     139.881 113.414 163.938  0.00  0.00    +0.000 C 
ATOM      4  C   UNL     1     139.044 113.045 163.986  0.00  0.00    +0.000 C 
ATOM      5  C   UNL     1     139.844 113.619 164.859  0.00  0.00    +0.000 C 
BRANCH   3   6
ATOM      6  O   UNL     1     140.738 113.792 163.888  0.00  0.00    +0.000 OA
BRANCH   6   7
ATOM      7  C   UNL     1     141.344 113.482 164.427  0.00  0.00    +0.000 A 
ATOM      8  C   UNL     1     142.684 112.937 165.569  0.00  0.00    +0.000 A 
ATOM      9 CL   UNL     1     143.333 112.645 166.132  0.00  0.00    +0.000 Cl
ATOM     10  C   UNL     1     142.031 114.054 164.694  0.00  0.00    +0.000 A 
ATOM     11  C   UNL     1     141.372 112.636 164.764  0.00  0.00    +0.000 A 
ATOM     12  C   UNL     1     142.017 112.369 165.315  0.00  0.00    +0.000 A 
ATOM     13  C   UNL     1     142.688 113.797 165.249  0.00  0.00    +0.000 A 
ENDBRANCH   6   7
ENDBRANCH   3   6
ENDBRANCH   1   3
BRANCH   1  14
ATOM     14  O   UNL     1     140.028 113.884 162.429  0.00  0.00    +0.000 OA
BRANCH  14  15
ATOM     15  C   UNL     1     140.099 113.685 161.550  0.00  0.00    +0.000 C 
BRANCH  15  16
ATOM     16  C   UNL     1     140.302 114.346 160.967  0.00  0.00    +0.000 C 
BRANCH  16  17
ATOM     17  C   UNL     1     140.561 114.132 160.159  0.00  0.00    +0.000 C 
BRANCH  17  18
ATOM     18  O   UNL     1     141.175 114.686 159.681  0.00  0.00    +0.000 OA
BRANCH  18  19
ATOM     19  C   UNL     1     141.193 114.581 158.793  0.00  0.00    +0.000 C 
ATOM     20  O   UNL     1     140.666 113.945 158.324  0.00  0.00    +0.000 OA
BRANCH  19  21
ATOM     21  C   UNL     1     141.750 115.115 158.307  0.00  0.00    +0.000 A 
ATOM     22  N   UNL     1     143.181 115.397 157.676  0.00  0.00    +0.000 NA
ATOM     23  C   UNL     1     142.617 114.850 158.172  0.00  0.00    +0.000 A 
ATOM     24  C   UNL     1     141.424 115.898 157.970  0.00  0.00    +0.000 A 
ATOM     25  C   UNL     1     142.864 116.183 157.334  0.00  0.00    +0.000 A 
ATOM     26  C   UNL     1     142.003 116.437 157.474  0.00  0.00    +0.000 A 
ENDBRANCH  19  21
ENDBRANCH  18  19
ENDBRANCH  17  18
ENDBRANCH  16  17
ENDBRANCH  15  16
ENDBRANCH  14  15
ENDBRANCH   1  14
TORSDOF 10
ENDMDL
MODEL 4
REMARK VINA RESULT:      -8.7      3.875      6.526
REMARK  Name = 
REMARK  10 active torsions:
REMARK  status: ('A' for Active; 'I' for Inactive)
REMARK    1  A    between atoms: C_1  and  C_3
REMARK    2  A    between atoms: C_1  and  O_5
REMARK    3  A    between atoms: C_2  and  C_4
REMARK    4  A    between atoms: C_2  and  O_10
REMARK    5  A    between atoms: C_3  and  O_11
REMARK    6  A    between atoms: O_5  and  C_9
REMARK    7  A    between atoms: O_10  and  C_25
REMARK    8  A    between atoms: O_11  and  C_24
REMARK    9  A    between atoms: C_19  and  C_24
REMARK   10  A    between atoms: C_19  and  C_25
REMARK                            x       y       z     vdW  Elec       q    Type
REMARK                         _______ _______ _______ _____ _____    ______ ____
ROOT
ATOM      1  C   UNL     1     139.992 115.071 163.204  0.00  0.00    +0.000 C 
ATOM      2  O   UNL     1     140.632 115.793 163.026  0.00  0.00    +0.000 OA
ENDROOT
BRANCH   1   3
ATOM      3  C   UNL     1     140.349 114.098 163.266  0.00  0.00    +0.000 C 
ATOM      4  C   UNL     1     140.264 114.009 162.358  0.00  0.00    +0.000 C 
ATOM      5  C   UNL     1     140.674 113.213 163.322  0.00  0.00    +0.000 C 
BRANCH   3   6
ATOM      6  O   UNL     1     140.437 114.189 164.195  0.00  0.00    +0.000 OA
BRANCH   6   7
ATOM      7  C   UNL     1     141.089 113.765 164.579  0.00  0.00    +0.000 A 
ATOM      8  C   UNL     1     142.543 112.968 165.386  0.00  0.00    +0.000 A 
ATOM      9 CL   UNL     1     143.245 112.555 165.785  0.00  0.00    +0.000 Cl
ATOM     10  C   UNL     1     141.887 114.226 164.731  0.00  0.00    +0.000 A 
ATOM     11  C   UNL     1     141.069 112.896 164.853  0.00  0.00    +0.000 A 
ATOM     12  C   UNL     1     141.768 112.508 165.243  0.00  0.00    +0.000 A 
ATOM     13  C   UNL     1     142.600 113.846 165.123  0.00  0.00    +0.000 A 
ENDBRANCH   6   7
ENDBRANCH   3   6
ENDBRANCH   1   3
BRANCH   1  14
ATOM     14  O   UNL     1     139.142 115.127 163.322  0.00  0.00    +0.000 OA
BRANCH  14  15
ATOM     15  C   UNL     1     138.854 115.976 163.436  0.00  0.00    +0.000 C 
BRANCH  15  16
ATOM     16  C   UNL     1     137.975 116.157 163.334  0.00  0.00    +0.000 C 
BRANCH  16  17
ATOM     17  C   UNL     1     137.651 116.892 163.681  0.00  0.00    +0.000 C 
BRANCH  17  18
ATOM     18  O   UNL     1     136.768 117.185 163.467  0.00  0.00    +0.000 OA
BRANCH  18  19
ATOM     19  C   UNL     1     136.361 117.695 164.080  0.00  0.00    +0.000 C 
ATOM     20  O   UNL     1     136.698 117.839 164.956  0.00  0.00    +0.000 OA
BRANCH  19  21
ATOM     21  C   UNL     1     135.576 118.100 163.852  0.00  0.00    +0.000 A 
ATOM     22  N   UNL     1     134.227 118.822 164.280  0.00  0.00    +0.000 NA
ATOM     23  C   UNL     1     135.026 118.409 164.516  0.00  0.00    +0.000 A 
ATOM     24  C   UNL     1     135.366 118.184 162.969  0.00  0.00    +0.000 A 
ATOM     25  C   UNL     1     134.007 118.911 163.398  0.00  0.00    +0.000 A 
ATOM     26  C   UNL     1     134.560 118.600 162.747  0.00  0.00    +0.000 A 
ENDBRANCH  19  21
ENDBRANCH  18  19
ENDBRANCH  17  18
ENDBRANCH  16  17
ENDBRANCH  15  16
ENDBRANCH  14  15
ENDBRANCH   1  14
TORSDOF 10
ENDMDL
MODEL 5
REMARK VINA RESULT:      -8.6     31.018     32.390
REMARK  Name = 
REMARK  10 active torsions:
REMARK  status: ('A' for Active; 'I' for Inactive)
REMARK    1  A    between atoms: C_1  and  C_3
REMARK    2  A    between atoms: C_1  and  O_5
REMARK    3  A    between atoms: C_2  and  C_4
REMARK    4  A    between atoms: C_2  and  O_10
REMARK    5  A    between atoms: C_3  and  O_11
REMARK    6  A    between atoms: O_5  and  C_9
REMARK    7  A    between atoms: O_10  and  C_25
REMARK    8  A    between atoms: O_11  and  C_24
REMARK    9  A    between atoms: C_19  and  C_24
REMARK   10  A    between atoms: C_19  and  C_25
REMARK                            x       y       z     vdW  Elec       q    Type
REMARK                         _______ _______ _______ _____ _____    ______ ____
ROOT
ATOM      1  C   UNL     1     125.929 143.298 168.805  0.00  0.00    +0.000 C 
ATOM      2  O   UNL     1     126.326 143.879 168.120  0.00  0.00    +0.000 OA
ENDROOT
BRANCH   1   3
ATOM      3  C   UNL     1     125.033 142.820 168.589  0.00  0.00    +0.000 C 
ATOM      4  C   UNL     1     125.483 142.210 168.075  0.00  0.00    +0.000 C 
ATOM      5  C   UNL     1     124.218 142.385 168.392  0.00  0.00    +0.000 C 
BRANCH   3   6
ATOM      6  O   UNL     1     124.573 143.446 169.115  0.00  0.00    +0.000 OA
BRANCH   6   7
ATOM      7  C   UNL     1     123.711 143.487 169.024  0.00  0.00    +0.000 A 
ATOM      8  C   UNL     1     121.869 143.523 168.943  0.00  0.00    +0.000 A 
ATOM      9 CL   UNL     1     120.965 143.552 168.880  0.00  0.00    +0.000 Cl
ATOM     10  C   UNL     1     123.177 143.164 169.718  0.00  0.00    +0.000 A 
ATOM     11  C   UNL     1     123.269 143.823 168.300  0.00  0.00    +0.000 A 
ATOM     12  C   UNL     1     122.380 143.842 168.258  0.00  0.00    +0.000 A 
ATOM     13  C   UNL     1     122.280 143.178 169.687  0.00  0.00    +0.000 A 
ENDBRANCH   6   7
ENDBRANCH   3   6
ENDBRANCH   1   3
BRANCH   1  14
ATOM     14  O   UNL     1     126.226 143.119 169.592  0.00  0.00    +0.000 OA
BRANCH  14  15
ATOM     15  C   UNL     1     127.033 143.491 169.760  0.00  0.00    +0.000 C 
BRANCH  15  16
ATOM     16  C   UNL     1     127.291 143.608 170.618  0.00  0.00    +0.000 C 
BRANCH  16  17
ATOM     17  C   UNL     1     128.144 143.586 170.811  0.00  0.00    +0.000 C 
BRANCH  17  18
ATOM     18  O   UNL     1     128.542 144.273 171.342  0.00  0.00    +0.000 OA
BRANCH  18  19
ATOM     19  C   UNL     1     129.388 144.135 171.598  0.00  0.00    +0.000 C 
ATOM     20  O   UNL     1     129.789 143.275 171.658  0.00  0.00    +0.000 OA
BRANCH  19  21
ATOM     21  C   UNL     1     129.897 144.860 171.815  0.00  0.00    +0.000 A 
ATOM     22  N   UNL     1     130.426 145.894 172.898  0.00  0.00    +0.000 NA
ATOM     23  C   UNL     1     129.905 145.155 172.681  0.00  0.00    +0.000 A 
ATOM     24  C   UNL     1     130.382 145.266 171.158  0.00  0.00    +0.000 A 
ATOM     25  C   UNL     1     130.915 146.309 172.249  0.00  0.00    +0.000 A 
ATOM     26  C   UNL     1     130.900 146.008 171.391  0.00  0.00    +0.000 A 
ENDBRANCH  19  21
ENDBRANCH  18  19
ENDBRANCH  17  18
ENDBRANCH  16  17
ENDBRANCH  15  16
ENDBRANCH  14  15
ENDBRANCH   1  14
TORSDOF 10
ENDMDL
MODEL 6
REMARK VINA RESULT:      -8.6     31.526     32.695
REMARK  Name = 
REMARK  10 active torsions:
REMARK  status: ('A' for Active; 'I' for Inactive)
REMARK    1  A    between atoms: C_1  and  C_3
REMARK    2  A    between atoms: C_1  and  O_5
REMARK    3  A    between atoms: C_2  and  C_4
REMARK    4  A    between atoms: C_2  and  O_10
REMARK    5  A    between atoms: C_3  and  O_11
REMARK    6  A    between atoms: O_5  and  C_9
REMARK    7  A    between atoms: O_10  and  C_25
REMARK    8  A    between atoms: O_11  and  C_24
REMARK    9  A    between atoms: C_19  and  C_24
REMARK   10  A    between atoms: C_19  and  C_25
REMARK                            x       y       z     vdW  Elec       q    Type
REMARK                         _______ _______ _______ _____ _____    ______ ____
ROOT
ATOM      1  C   UNL     1     124.067 143.072 169.005  0.00  0.00    +0.000 C 
ATOM      2  O   UNL     1     124.355 142.303 168.468  0.00  0.00    +0.000 OA
ENDROOT
BRANCH   1   3
ATOM      3  C   UNL     1     123.059 143.316 169.016  0.00  0.00    +0.000 C 
ATOM      4  C   UNL     1     122.891 142.603 169.565  0.00  0.00    +0.000 C 
ATOM      5  C   UNL     1     122.140 143.539 169.026  0.00  0.00    +0.000 C 
BRANCH   3   6
ATOM      6  O   UNL     1     123.230 144.047 168.454  0.00  0.00    +0.000 OA
BRANCH   6   7
ATOM      7  C   UNL     1     122.737 144.131 167.744  0.00  0.00    +0.000 A 
ATOM      8  C   UNL     1     121.794 144.324 166.172  0.00  0.00    +0.000 A 
ATOM      9 CL   UNL     1     121.308 144.416 165.411  0.00  0.00    +0.000 Cl
ATOM     10  C   UNL     1     123.161 144.283 166.927  0.00  0.00    +0.000 A 
ATOM     11  C   UNL     1     121.827 144.083 167.722  0.00  0.00    +0.000 A 
ATOM     12  C   UNL     1     121.368 144.176 166.965  0.00  0.00    +0.000 A 
ATOM     13  C   UNL     1     122.710 144.378 166.157  0.00  0.00    +0.000 A 
ENDBRANCH   6   7
ENDBRANCH   3   6
ENDBRANCH   1   3
BRANCH   1  14
ATOM     14  O   UNL     1     124.547 143.596 169.490  0.00  0.00    +0.000 OA
BRANCH  14  15
ATOM     15  C   UNL     1     125.406 143.323 169.565  0.00  0.00    +0.000 C 
BRANCH  15  16
ATOM     16  C   UNL     1     125.985 143.827 170.041  0.00  0.00    +0.000 C 
BRANCH  16  17
ATOM     17  C   UNL     1     126.790 143.520 170.191  0.00  0.00    +0.000 C 
BRANCH  17  18
ATOM     18  O   UNL     1     127.426 144.036 170.683  0.00  0.00    +0.000 OA
BRANCH  18  19
ATOM     19  C   UNL     1     128.250 143.693 170.745  0.00  0.00    +0.000 C 
ATOM     20  O   UNL     1     128.480 142.814 170.465  0.00  0.00    +0.000 OA
BRANCH  19  21
ATOM     21  C   UNL     1     128.909 144.215 171.097  0.00  0.00    +0.000 A 
ATOM     22  N   UNL     1     129.706 144.757 172.360  0.00  0.00    +0.000 NA
ATOM     23  C   UNL     1     129.033 144.224 172.005  0.00  0.00    +0.000 A 
ATOM     24  C   UNL     1     129.424 144.712 170.532  0.00  0.00    +0.000 A 
ATOM     25  C   UNL     1     130.228 145.259 171.803  0.00  0.00    +0.000 A 
ATOM     26  C   UNL     1     130.096 145.243 170.904  0.00  0.00    +0.000 A 
ENDBRANCH  19  21
ENDBRANCH  18  19
ENDBRANCH  17  18
ENDBRANCH  16  17
ENDBRANCH  15  16
ENDBRANCH  14  15
ENDBRANCH   1  14
TORSDOF 10
ENDMDL
MODEL 7
REMARK VINA RESULT:      -8.5     45.622     48.660
REMARK  Name = 
REMARK  10 active torsions:
REMARK  status: ('A' for Active; 'I' for Inactive)
REMARK    1  A    between atoms: C_1  and  C_3
REMARK    2  A    between atoms: C_1  and  O_5
REMARK    3  A    between atoms: C_2  and  C_4
REMARK    4  A    between atoms: C_2  and  O_10
REMARK    5  A    between atoms: C_3  and  O_11
REMARK    6  A    between atoms: O_5  and  C_9
REMARK    7  A    between atoms: O_10  and  C_25
REMARK    8  A    between atoms: O_11  and  C_24
REMARK    9  A    between atoms: C_19  and  C_24
REMARK   10  A    between atoms: C_19  and  C_25
REMARK                            x       y       z     vdW  Elec       q    Type
REMARK                         _______ _______ _______ _____ _____    ______ ____
ROOT
ATOM      1  C   UNL     1     125.288 154.455 186.390  0.00  0.00    +0.000 C 
ATOM      2  O   UNL     1     124.838 154.599 187.251  0.00  0.00    +0.000 OA
ENDROOT
BRANCH   1   3
ATOM      3  C   UNL     1     125.859 153.597 186.269  0.00  0.00    +0.000 C 
ATOM      4  C   UNL     1     126.506 153.951 186.811  0.00  0.00    +0.000 C 
ATOM      5  C   UNL     1     126.379 152.816 186.158  0.00  0.00    +0.000 C 
BRANCH   3   6
ATOM      6  O   UNL     1     125.195 153.234 185.713  0.00  0.00    +0.000 OA
BRANCH   6   7
ATOM      7  C   UNL     1     124.957 152.413 185.859  0.00  0.00    +0.000 A 
ATOM      8  C   UNL     1     124.445 150.652 186.044  0.00  0.00    +0.000 A 
ATOM      9 CL   UNL     1     124.194 149.788 186.161  0.00  0.00    +0.000 Cl
ATOM     10  C   UNL     1     124.784 151.866 185.122  0.00  0.00    +0.000 A 
ATOM     11  C   UNL     1     124.859 152.026 186.678  0.00  0.00    +0.000 A 
ATOM     12  C   UNL     1     124.612 151.176 186.772  0.00  0.00    +0.000 A 
ATOM     13  C   UNL     1     124.534 151.008 185.203  0.00  0.00    +0.000 A 
ENDBRANCH   6   7
ENDBRANCH   3   6
ENDBRANCH   1   3
BRANCH   1  14
ATOM     14  O   UNL     1     125.278 154.957 185.692  0.00  0.00    +0.000 OA
BRANCH  14  15
ATOM     15  C   UNL     1     124.962 155.788 185.855  0.00  0.00    +0.000 C 
BRANCH  15  16
ATOM     16  C   UNL     1     124.928 156.384 185.177  0.00  0.00    +0.000 C 
BRANCH  16  17
ATOM     17  C   UNL     1     124.750 157.221 185.358  0.00  0.00    +0.000 C 
BRANCH  17  18
ATOM     18  O   UNL     1     125.042 157.919 184.775  0.00  0.00    +0.000 OA
BRANCH  18  19
ATOM     19  C   UNL     1     124.815 158.752 185.010  0.00  0.00    +0.000 C 
ATOM     20  O   UNL     1     124.281 158.961 185.768  0.00  0.00    +0.000 OA
BRANCH  19  21
ATOM     21  C   UNL     1     125.112 159.443 184.494  0.00  0.00    +0.000 A 
ATOM     22  N   UNL     1     126.190 160.570 184.193  0.00  0.00    +0.000 NA
ATOM     23  C   UNL     1     125.891 159.866 184.721  0.00  0.00    +0.000 A 
ATOM     24  C   UNL     1     124.620 159.688 183.766  0.00  0.00    +0.000 A 
ATOM     25  C   UNL     1     125.706 160.824 183.462  0.00  0.00    +0.000 A 
ATOM     26  C   UNL     1     124.933 160.397 183.244  0.00  0.00    +0.000 A 
ENDBRANCH  19  21
ENDBRANCH  18  19
ENDBRANCH  17  18
ENDBRANCH  16  17
ENDBRANCH  15  16
ENDBRANCH  14  15
ENDBRANCH   1  14
TORSDOF 10
ENDMDL
MODEL 8
REMARK VINA RESULT:      -8.5      2.919      6.451
REMARK  Name = 
REMARK  10 active torsions:
REMARK  status: ('A' for Active; 'I' for Inactive)
REMARK    1  A    between atoms: C_1  and  C_3
REMARK    2  A    between atoms: C_1  and  O_5
REMARK    3  A    between atoms: C_2  and  C_4
REMARK    4  A    between atoms: C_2  and  O_10
REMARK    5  A    between atoms: C_3  and  O_11
REMARK    6  A    between atoms: O_5  and  C_9
REMARK    7  A    between atoms: O_10  and  C_25
REMARK    8  A    between atoms: O_11  and  C_24
REMARK    9  A    between atoms: C_19  and  C_24
REMARK   10  A    between atoms: C_19  and  C_25
REMARK                            x       y       z     vdW  Elec       q    Type
REMARK                         _______ _______ _______ _____ _____    ______ ____
ROOT
ATOM      1  C   UNL     1     139.917 115.236 163.077  0.00  0.00    +0.000 C 
ATOM      2  O   UNL     1     140.619 115.875 163.325  0.00  0.00    +0.000 OA
ENDROOT
BRANCH   1   3
ATOM      3  C   UNL     1     140.197 114.349 162.617  0.00  0.00    +0.000 C 
ATOM      4  C   UNL     1     140.541 114.046 163.410  0.00  0.00    +0.000 C 
ATOM      5  C   UNL     1     140.452 113.541 162.198  0.00  0.00    +0.000 C 
BRANCH   3   6
ATOM      6  O   UNL     1     139.844 114.659 161.805  0.00  0.00    +0.000 OA
BRANCH   6   7
ATOM      7  C   UNL     1     140.288 114.479 161.081  0.00  0.00    +0.000 A 
ATOM      8  C   UNL     1     141.288 114.208 159.557  0.00  0.00    +0.000 A 
ATOM      9 CL   UNL     1     141.769 114.052 158.803  0.00  0.00    +0.000 Cl
ATOM     10  C   UNL     1     140.901 115.111 160.771  0.00  0.00    +0.000 A 
ATOM     11  C   UNL     1     140.211 113.718 160.586  0.00  0.00    +0.000 A 
ATOM     12  C   UNL     1     140.692 113.583 159.850  0.00  0.00    +0.000 A 
ATOM     13  C   UNL     1     141.392 114.987 160.030  0.00  0.00    +0.000 A 
ENDBRANCH   6   7
ENDBRANCH   3   6
ENDBRANCH   1   3
BRANCH   1  14
ATOM     14  O   UNL     1     139.067 115.305 163.189  0.00  0.00    +0.000 OA
BRANCH  14  15
ATOM     15  C   UNL     1     138.833 116.004 163.713  0.00  0.00    +0.000 C 
BRANCH  15  16
ATOM     16  C   UNL     1     137.962 116.121 163.923  0.00  0.00    +0.000 C 
BRANCH  16  17
ATOM     17  C   UNL     1     137.659 116.934 164.036  0.00  0.00    +0.000 C 
BRANCH  17  18
ATOM     18  O   UNL     1     136.825 117.202 163.656  0.00  0.00    +0.000 OA
BRANCH  18  19
ATOM     19  C   UNL     1     136.313 117.734 164.161  0.00  0.00    +0.000 C 
ATOM     20  O   UNL     1     136.506 117.950 165.066  0.00  0.00    +0.000 OA
BRANCH  19  21
ATOM     21  C   UNL     1     135.562 118.092 163.787  0.00  0.00    +0.000 A 
ATOM     22  N   UNL     1     134.690 118.422 162.501  0.00  0.00    +0.000 NA
ATOM     23  C   UNL     1     135.457 118.056 162.878  0.00  0.00    +0.000 A 
ATOM     24  C   UNL     1     134.941 118.475 164.334  0.00  0.00    +0.000 A 
ATOM     25  C   UNL     1     134.061 118.808 163.039  0.00  0.00    +0.000 A 
ATOM     26  C   UNL     1     134.175 118.838 163.940  0.00  0.00    +0.000 A 
ENDBRANCH  19  21
ENDBRANCH  18  19
ENDBRANCH  17  18
ENDBRANCH  16  17
ENDBRANCH  15  16
ENDBRANCH  14  15
ENDBRANCH   1  14
TORSDOF 10
ENDMDL
MODEL 9
REMARK VINA RESULT:      -8.4      1.469      2.137
REMARK  Name = 
REMARK  10 active torsions:
REMARK  status: ('A' for Active; 'I' for Inactive)
REMARK    1  A    between atoms: C_1  and  C_3
REMARK    2  A    between atoms: C_1  and  O_5
REMARK    3  A    between atoms: C_2  and  C_4
REMARK    4  A    between atoms: C_2  and  O_10
REMARK    5  A    between atoms: C_3  and  O_11
REMARK    6  A    between atoms: O_5  and  C_9
REMARK    7  A    between atoms: O_10  and  C_25
REMARK    8  A    between atoms: O_11  and  C_24
REMARK    9  A    between atoms: C_19  and  C_24
REMARK   10  A    between atoms: C_19  and  C_25
REMARK                            x       y       z     vdW  Elec       q    Type
REMARK                         _______ _______ _______ _____ _____    ______ ____
ROOT
ATOM      1  C   UNL     1     139.915 112.863 162.778  0.00  0.00    +0.000 C 
ATOM      2  O   UNL     1     139.346 112.064 162.793  0.00  0.00    +0.000 OA
ENDROOT
BRANCH   1   3
ATOM      3  C   UNL     1     139.962 113.451 163.633  0.00  0.00    +0.000 C 
ATOM      4  C   UNL     1     140.823 113.173 163.776  0.00  0.00    +0.000 C 
ATOM      5  C   UNL     1     140.005 113.986 164.410  0.00  0.00    +0.000 C 
BRANCH   3   6
ATOM      6  O   UNL     1     139.081 113.735 163.486  0.00  0.00    +0.000 OA
BRANCH   6   7
ATOM      7  C   UNL     1     138.885 114.555 163.694  0.00  0.00    +0.000 A 
ATOM      8  C   UNL     1     138.394 116.251 164.222  0.00  0.00    +0.000 A 
ATOM      9 CL   UNL     1     138.167 117.096 164.465  0.00  0.00    +0.000 Cl
ATOM     10  C   UNL     1     138.278 114.702 164.387  0.00  0.00    +0.000 A 
ATOM     11  C   UNL     1     139.223 115.300 163.291  0.00  0.00    +0.000 A 
ATOM     12  C   UNL     1     138.988 116.120 163.543  0.00  0.00    +0.000 A 
ATOM     13  C   UNL     1     138.033 115.524 164.651  0.00  0.00    +0.000 A 
ENDBRANCH   6   7
ENDBRANCH   3   6
ENDBRANCH   1   3
BRANCH   1  14
ATOM     14  O   UNL     1     140.401 113.162 162.135  0.00  0.00    +0.000 OA
BRANCH  14  15
ATOM     15  C   UNL     1     140.201 112.790 161.336  0.00  0.00    +0.000 C 
BRANCH  15  16
ATOM     16  C   UNL     1     140.721 112.982 160.622  0.00  0.00    +0.000 C 
BRANCH  16  17
ATOM     17  C   UNL     1     140.694 113.788 160.284  0.00  0.00    +0.000 C 
BRANCH  17  18
ATOM     18  O   UNL     1     141.256 114.028 159.550  0.00  0.00    +0.000 OA
BRANCH  18  19
ATOM     19  C   UNL     1     141.548 114.874 159.535  0.00  0.00    +0.000 C 
ATOM     20  O   UNL     1     141.528 115.454 160.287  0.00  0.00    +0.000 OA
BRANCH  19  21
ATOM     21  C   UNL     1     141.885 115.201 158.753  0.00  0.00    +0.000 A 
ATOM     22  N   UNL     1     142.995 115.173 157.617  0.00  0.00    +0.000 NA
ATOM     23  C   UNL     1     142.655 114.837 158.414  0.00  0.00    +0.000 A 
ATOM     24  C   UNL     1     141.443 115.880 158.335  0.00  0.00    +0.000 A 
ATOM     25  C   UNL     1     142.561 115.853 157.190  0.00  0.00    +0.000 A 
ATOM     26  C   UNL     1     141.798 116.207 157.535  0.00  0.00    +0.000 A 
ENDBRANCH  19  21
ENDBRANCH  18  19
ENDBRANCH  17  18
ENDBRANCH  16  17
ENDBRANCH  15  16
ENDBRANCH  14  15
ENDBRANCH   1  14
TORSDOF 10
ENDMDL
MODEL 10
REMARK VINA RESULT:      -8.4      4.007      4.855
REMARK  Name = 
REMARK  10 active torsions:
REMARK  status: ('A' for Active; 'I' for Inactive)
REMARK    1  A    between atoms: C_1  and  C_3
REMARK    2  A    between atoms: C_1  and  O_5
REMARK    3  A    between atoms: C_2  and  C_4
REMARK    4  A    between atoms: C_2  and  O_10
REMARK    5  A    between atoms: C_3  and  O_11
REMARK    6  A    between atoms: O_5  and  C_9
REMARK    7  A    between atoms: O_10  and  C_25
REMARK    8  A    between atoms: O_11  and  C_24
REMARK    9  A    between atoms: C_19  and  C_24
REMARK   10  A    between atoms: C_19  and  C_25
REMARK                            x       y       z     vdW  Elec       q    Type
REMARK                         _______ _______ _______ _____ _____    ______ ____
ROOT
ATOM      1  C   UNL     1     140.639 113.512 164.105  0.00  0.00    +0.000 C 
ATOM      2  O   UNL     1     140.675 113.293 165.060  0.00  0.00    +0.000 OA
ENDROOT
BRANCH   1   3
ATOM      3  C   UNL     1     140.661 114.512 163.826  0.00  0.00    +0.000 C 
ATOM      4  C   UNL     1     141.523 114.577 164.128  0.00  0.00    +0.000 C 
ATOM      5  C   UNL     1     140.681 115.422 163.572  0.00  0.00    +0.000 C 
BRANCH   3   6
ATOM      6  O   UNL     1     139.778 114.445 163.516  0.00  0.00    +0.000 OA
BRANCH   6   7
ATOM      7  C   UNL     1     139.229 115.080 163.734  0.00  0.00    +0.000 A 
ATOM      8  C   UNL     1     138.006 116.350 164.273  0.00  0.00    +0.000 A 
ATOM      9 CL   UNL     1     137.415 116.992 164.523  0.00  0.00    +0.000 Cl
ATOM     10  C   UNL     1     138.565 114.894 164.363  0.00  0.00    +0.000 A 
ATOM     11  C   UNL     1     139.239 115.929 163.400  0.00  0.00    +0.000 A 
ATOM     12  C   UNL     1     138.651 116.544 163.657  0.00  0.00    +0.000 A 
ATOM     13  C   UNL     1     137.965 115.506 164.631  0.00  0.00    +0.000 A 
ENDBRANCH   6   7
ENDBRANCH   3   6
ENDBRANCH   1   3
BRANCH   1  14
ATOM     14  O   UNL     1     140.590 112.975 163.434  0.00  0.00    +0.000 OA
BRANCH  14  15
ATOM     15  C   UNL     1     140.864 112.136 163.630  0.00  0.00    +0.000 C 
BRANCH  15  16
ATOM     16  C   UNL     1     140.575 111.451 163.117  0.00  0.00    +0.000 C 
BRANCH  16  17
ATOM     17  C   UNL     1     141.100 111.143 162.488  0.00  0.00    +0.000 C 
BRANCH  17  18
ATOM     18  O   UNL     1     141.258 110.205 162.402  0.00  0.00    +0.000 OA
BRANCH  18  19
ATOM     19  C   UNL     1     141.604 109.932 161.623  0.00  0.00    +0.000 C 
ATOM     20  O   UNL     1     141.590 110.452 160.827  0.00  0.00    +0.000 OA
BRANCH  19  21
ATOM     21  C   UNL     1     141.995 109.109 161.588  0.00  0.00    +0.000 A 
ATOM     22  N   UNL     1     143.293 108.209 161.418  0.00  0.00    +0.000 NA
ATOM     23  C   UNL     1     142.899 109.050 161.453  0.00  0.00    +0.000 A 
ATOM     24  C   UNL     1     141.470 108.371 161.691  0.00  0.00    +0.000 A 
ATOM     25  C   UNL     1     142.776 107.463 161.519  0.00  0.00    +0.000 A 
ATOM     26  C   UNL     1     141.880 107.532 161.654  0.00  0.00    +0.000 A 
ENDBRANCH  19  21
ENDBRANCH  18  19
ENDBRANCH  17  18
ENDBRANCH  16  17
ENDBRANCH  15  16
ENDBRANCH  14  15
ENDBRANCH   1  14
TORSDOF 10
ENDMDL
MODEL 11
REMARK VINA RESULT:      -8.3      5.203      6.205
REMARK  Name = 
REMARK  10 active torsions:
REMARK  status: ('A' for Active; 'I' for Inactive)
REMARK    1  A    between atoms: C_1  and  C_3
REMARK    2  A    between atoms: C_1  and  O_5
REMARK    3  A    between atoms: C_2  and  C_4
REMARK    4  A    between atoms: C_2  and  O_10
REMARK    5  A    between atoms: C_3  and  O_11
REMARK    6  A    between atoms: O_5  and  C_9
REMARK    7  A    between atoms: O_10  and  C_25
REMARK    8  A    between atoms: O_11  and  C_24
REMARK    9  A    between atoms: C_19  and  C_24
REMARK   10  A    between atoms: C_19  and  C_25
REMARK                            x       y       z     vdW  Elec       q    Type
REMARK                         _______ _______ _______ _____ _____    ______ ____
ROOT
ATOM      1  C   UNL     1     140.492 112.010 163.785  0.00  0.00    +0.000 C 
ATOM      2  O   UNL     1     140.791 112.739 163.201  0.00  0.00    +0.000 OA
ENDROOT
BRANCH   1   3
ATOM      3  C   UNL     1     140.322 112.218 164.788  0.00  0.00    +0.000 C 
ATOM      4  C   UNL     1     141.224 112.295 164.925  0.00  0.00    +0.000 C 
ATOM      5  C   UNL     1     140.167 112.407 165.701  0.00  0.00    +0.000 C 
BRANCH   3   6
ATOM      6  O   UNL     1     139.398 112.139 164.648  0.00  0.00    +0.000 OA
BRANCH   6   7
ATOM      7  C   UNL     1     138.878 112.669 165.097  0.00  0.00    +0.000 A 
ATOM      8  C   UNL     1     137.779 113.875 165.955  0.00  0.00    +0.000 A 
ATOM      9 CL   UNL     1     137.237 114.453 166.397  0.00  0.00    +0.000 Cl
ATOM     10  C   UNL     1     138.627 113.478 164.705  0.00  0.00    +0.000 A 
ATOM     11  C   UNL     1     138.549 112.508 165.932  0.00  0.00    +0.000 A 
ATOM     12  C   UNL     1     138.018 113.087 166.349  0.00  0.00    +0.000 A 
ATOM     13  C   UNL     1     138.092 114.071 165.115  0.00  0.00    +0.000 A 
ENDBRANCH   6   7
ENDBRANCH   3   6
ENDBRANCH   1   3
BRANCH   1  14
ATOM     14  O   UNL     1     140.343 111.188 163.581  0.00  0.00    +0.000 OA
BRANCH  14  15
ATOM     15  C   UNL     1     140.676 110.957 162.772  0.00  0.00    +0.000 C 
BRANCH  15  16
ATOM     16  C   UNL     1     140.466 110.148 162.428  0.00  0.00    +0.000 C 
BRANCH  16  17
ATOM     17  C   UNL     1     141.054 109.735 161.929  0.00  0.00    +0.000 C 
BRANCH  17  18
ATOM     18  O   UNL     1     141.282 108.823 162.097  0.00  0.00    +0.000 OA
BRANCH  18  19
ATOM     19  C   UNL     1     141.762 108.412 161.464  0.00  0.00    +0.000 C 
ATOM     20  O   UNL     1     141.883 108.754 160.586  0.00  0.00    +0.000 OA
BRANCH  19  21
ATOM     21  C   UNL     1     142.160 107.618 161.671  0.00  0.00    +0.000 A 
ATOM     22  N   UNL     1     143.462 106.790 162.050  0.00  0.00    +0.000 NA
ATOM     23  C   UNL     1     143.060 107.601 161.839  0.00  0.00    +0.000 A 
ATOM     24  C   UNL     1     141.645 106.866 161.705  0.00  0.00    +0.000 A 
ATOM     25  C   UNL     1     142.956 106.030 162.086  0.00  0.00    +0.000 A 
ATOM     26  C   UNL     1     142.063 106.058 161.918  0.00  0.00    +0.000 A 
ENDBRANCH  19  21
ENDBRANCH  18  19
ENDBRANCH  17  18
ENDBRANCH  16  17
ENDBRANCH  15  16
ENDBRANCH  14  15
ENDBRANCH   1  14
TORSDOF 10
ENDMDL
MODEL 12
REMARK VINA RESULT:      -8.2     31.708     34.106
REMARK  Name = 
REMARK  10 active torsions:
REMARK  status: ('A' for Active; 'I' for Inactive)
REMARK    1  A    between atoms: C_1  and  C_3
REMARK    2  A    between atoms: C_1  and  O_5
REMARK    3  A    between atoms: C_2  and  C_4
REMARK    4  A    between atoms: C_2  and  O_10
REMARK    5  A    between atoms: C_3  and  O_11
REMARK    6  A    between atoms: O_5  and  C_9
REMARK    7  A    between atoms: O_10  and  C_25
REMARK    8  A    between atoms: O_11  and  C_24
REMARK    9  A    between atoms: C_19  and  C_24
REMARK   10  A    between atoms: C_19  and  C_25
REMARK                            x       y       z     vdW  Elec       q    Type
REMARK                         _______ _______ _______ _____ _____    ______ ____
ROOT
ATOM      1  C   UNL     1     126.167 110.672 194.490  0.00  0.00    +0.000 C 
ATOM      2  O   UNL     1     126.028 111.309 195.224  0.00  0.00    +0.000 OA
ENDROOT
BRANCH   1   3
ATOM      3  C   UNL     1     126.879 109.927 194.611  0.00  0.00    +0.000 C 
ATOM      4  C   UNL     1     126.533 109.730 195.436  0.00  0.00    +0.000 C 
ATOM      5  C   UNL     1     127.527 109.248 194.722  0.00  0.00    +0.000 C 
BRANCH   3   6
ATOM      6  O   UNL     1     127.234 110.128 193.766  0.00  0.00    +0.000 OA
BRANCH   6   7
ATOM      7  C   UNL     1     128.080 110.315 193.722  0.00  0.00    +0.000 A 
ATOM      8  C   UNL     1     129.891 110.614 193.555  0.00  0.00    +0.000 A 
ATOM      9 CL   UNL     1     130.780 110.781 193.488  0.00  0.00    +0.000 Cl
ATOM     10  C   UNL     1     128.631 109.752 193.223  0.00  0.00    +0.000 A 
ATOM     11  C   UNL     1     128.488 111.025 194.123  0.00  0.00    +0.000 A 
ATOM     12  C   UNL     1     129.362 111.172 194.045  0.00  0.00    +0.000 A 
ATOM     13  C   UNL     1     129.514 109.889 193.136  0.00  0.00    +0.000 A 
ENDBRANCH   6   7
ENDBRANCH   3   6
ENDBRANCH   1   3
BRANCH   1  14
ATOM     14  O   UNL     1     125.770 110.639 193.728  0.00  0.00    +0.000 OA
BRANCH  14  15
ATOM     15  C   UNL     1     125.234 111.352 193.575  0.00  0.00    +0.000 C 
BRANCH  15  16
ATOM     16  C   UNL     1     124.710 111.354 192.840  0.00  0.00    +0.000 C 
BRANCH  16  17
ATOM     17  C   UNL     1     124.595 112.105 192.405  0.00  0.00    +0.000 C 
BRANCH  17  18
ATOM     18  O   UNL     1     124.290 112.102 191.500  0.00  0.00    +0.000 OA
BRANCH  18  19
ATOM     19  C   UNL     1     124.257 112.898 191.091  0.00  0.00    +0.000 C 
ATOM     20  O   UNL     1     124.270 113.729 191.551  0.00  0.00    +0.000 OA
BRANCH  19  21
ATOM     21  C   UNL     1     124.209 112.914 190.181  0.00  0.00    +0.000 A 
ATOM     22  N   UNL     1     124.677 113.522 188.790  0.00  0.00    +0.000 NA
ATOM     23  C   UNL     1     124.729 113.509 189.717  0.00  0.00    +0.000 A 
ATOM     24  C   UNL     1     123.642 112.335 189.762  0.00  0.00    +0.000 A 
ATOM     25  C   UNL     1     124.113 112.947 188.360  0.00  0.00    +0.000 A 
ATOM     26  C   UNL     1     123.601 112.360 188.829  0.00  0.00    +0.000 A 
ENDBRANCH  19  21
ENDBRANCH  18  19
ENDBRANCH  17  18
ENDBRANCH  16  17
ENDBRANCH  15  16
ENDBRANCH  14  15
ENDBRANCH   1  14
TORSDOF 10
ENDMDL
MODEL 13
REMARK VINA RESULT:      -8.2     72.013     73.849
REMARK  Name = 
REMARK  10 active torsions:
REMARK  status: ('A' for Active; 'I' for Inactive)
REMARK    1  A    between atoms: C_1  and  C_3
REMARK    2  A    between atoms: C_1  and  O_5
REMARK    3  A    between atoms: C_2  and  C_4
REMARK    4  A    between atoms: C_2  and  O_10
REMARK    5  A    between atoms: C_3  and  O_11
REMARK    6  A    between atoms: O_5  and  C_9
REMARK    7  A    between atoms: O_10  and  C_25
REMARK    8  A    between atoms: O_11  and  C_24
REMARK    9  A    between atoms: C_19  and  C_24
REMARK   10  A    between atoms: C_19  and  C_25
REMARK                            x       y       z     vdW  Elec       q    Type
REMARK                         _______ _______ _______ _____ _____    ______ ____
ROOT
ATOM      1  C   UNL     1     118.334 145.682  97.327  0.00  0.00    +0.000 C 
ATOM      2  O   UNL     1     117.825 145.367  96.550  0.00  0.00    +0.000 OA
ENDROOT
BRANCH   1   3
ATOM      3  C   UNL     1     119.371 145.651  97.284  0.00  0.00    +0.000 C 
ATOM      4  C   UNL     1     119.362 146.276  96.615  0.00  0.00    +0.000 C 
ATOM      5  C   UNL     1     120.315 145.623  97.245  0.00  0.00    +0.000 C 
BRANCH   3   6
ATOM      6  O   UNL     1     119.380 145.011  97.970  0.00  0.00    +0.000 OA
BRANCH   6   7
ATOM      7  C   UNL     1     119.812 144.273  97.822  0.00  0.00    +0.000 A 
ATOM      8  C   UNL     1     120.753 142.700  97.631  0.00  0.00    +0.000 A 
ATOM      9 CL   UNL     1     121.212 141.926  97.512  0.00  0.00    +0.000 Cl
ATOM     10  C   UNL     1     120.197 143.834  98.550  0.00  0.00    +0.000 A 
ATOM     11  C   UNL     1     119.929 143.879  97.008  0.00  0.00    +0.000 A 
ATOM     12  C   UNL     1     120.382 143.120  96.912  0.00  0.00    +0.000 A 
ATOM     13  C   UNL     1     120.657 143.067  98.467  0.00  0.00    +0.000 A 
ENDBRANCH   6   7
ENDBRANCH   3   6
ENDBRANCH   1   3
BRANCH   1  14
ATOM     14  O   UNL     1     118.036 145.994  98.071  0.00  0.00    +0.000 OA
BRANCH  14  15
ATOM     15  C   UNL     1     117.157 146.204  98.041  0.00  0.00    +0.000 C 
BRANCH  15  16
ATOM     16  C   UNL     1     116.706 146.306  98.817  0.00  0.00    +0.000 C 
BRANCH  16  17
ATOM     17  C   UNL     1     116.152 146.978  98.900  0.00  0.00    +0.000 C 
BRANCH  17  18
ATOM     18  O   UNL     1     115.246 146.835  99.165  0.00  0.00    +0.000 OA
BRANCH  18  19
ATOM     19  C   UNL     1     114.793 147.559  99.432  0.00  0.00    +0.000 C 
ATOM     20  O   UNL     1     115.187 148.414  99.557  0.00  0.00    +0.000 OA
BRANCH  19  21
ATOM     21  C   UNL     1     113.899 147.473  99.594  0.00  0.00    +0.000 A 
ATOM     22  N   UNL     1     112.403 147.438  99.062  0.00  0.00    +0.000 NA
ATOM     23  C   UNL     1     113.312 147.526  98.893  0.00  0.00    +0.000 A 
ATOM     24  C   UNL     1     113.621 147.338 100.452  0.00  0.00    +0.000 A 
ATOM     25  C   UNL     1     112.113 147.302  99.917  0.00  0.00    +0.000 A 
ATOM     26  C   UNL     1     112.703 147.252 100.606  0.00  0.00    +0.000 A 
ENDBRANCH  19  21
ENDBRANCH  18  19
ENDBRANCH  17  18
ENDBRANCH  16  17
ENDBRANCH  15  16
ENDBRANCH  14  15
ENDBRANCH   1  14
TORSDOF 10
ENDMDL
MODEL 14
REMARK VINA RESULT:      -8.1     28.321     31.087
REMARK  Name = 
REMARK  10 active torsions:
REMARK  status: ('A' for Active; 'I' for Inactive)
REMARK    1  A    between atoms: C_1  and  C_3
REMARK    2  A    between atoms: C_1  and  O_5
REMARK    3  A    between atoms: C_2  and  C_4
REMARK    4  A    between atoms: C_2  and  O_10
REMARK    5  A    between atoms: C_3  and  O_11
REMARK    6  A    between atoms: O_5  and  C_9
REMARK    7  A    between atoms: O_10  and  C_25
REMARK    8  A    between atoms: O_11  and  C_24
REMARK    9  A    between atoms: C_19  and  C_24
REMARK   10  A    between atoms: C_19  and  C_25
REMARK                            x       y       z     vdW  Elec       q    Type
REMARK                         _______ _______ _______ _____ _____    ______ ____
ROOT
ATOM      1  C   UNL     1     124.124 143.420 168.989  0.00  0.00    +0.000 C 
ATOM      2  O   UNL     1     124.546 144.168 169.462  0.00  0.00    +0.000 OA
ENDROOT
BRANCH   1   3
ATOM      3  C   UNL     1     123.092 143.428 168.873  0.00  0.00    +0.000 C 
ATOM      4  C   UNL     1     123.026 142.688 169.410  0.00  0.00    +0.000 C 
ATOM      5  C   UNL     1     122.153 143.435 168.768  0.00  0.00    +0.000 C 
BRANCH   3   6
ATOM      6  O   UNL     1     123.160 144.185 168.324  0.00  0.00    +0.000 OA
BRANCH   6   7
ATOM      7  C   UNL     1     122.683 144.198 167.600  0.00  0.00    +0.000 A 
ATOM      8  C   UNL     1     121.775 144.234 165.996  0.00  0.00    +0.000 A 
ATOM      9 CL   UNL     1     121.306 144.249 165.219  0.00  0.00    +0.000 Cl
ATOM     10  C   UNL     1     123.125 144.266 166.781  0.00  0.00    +0.000 A 
ATOM     11  C   UNL     1     121.773 144.150 167.562  0.00  0.00    +0.000 A 
ATOM     12  C   UNL     1     121.331 144.167 166.790  0.00  0.00    +0.000 A 
ATOM     13  C   UNL     1     122.691 144.284 165.995  0.00  0.00    +0.000 A 
ENDBRANCH   6   7
ENDBRANCH   3   6
ENDBRANCH   1   3
BRANCH   1  14
ATOM     14  O   UNL     1     124.498 142.727 168.641  0.00  0.00    +0.000 OA
BRANCH  14  15
ATOM     15  C   UNL     1     125.394 142.713 168.755  0.00  0.00    +0.000 C 
BRANCH  15  16
ATOM     16  C   UNL     1     125.883 142.103 168.301  0.00  0.00    +0.000 C 
BRANCH  16  17
ATOM     17  C   UNL     1     126.717 141.975 168.529  0.00  0.00    +0.000 C 
BRANCH  17  18
ATOM     18  O   UNL     1     127.266 141.360 168.047  0.00  0.00    +0.000 OA
BRANCH  18  19
ATOM     19  C   UNL     1     128.097 141.243 168.359  0.00  0.00    +0.000 C 
ATOM     20  O   UNL     1     128.423 141.639 169.158  0.00  0.00    +0.000 OA
BRANCH  19  21
ATOM     21  C   UNL     1     128.666 140.712 167.882  0.00  0.00    +0.000 A 
ATOM     22  N   UNL     1     129.823 140.557 166.805  0.00  0.00    +0.000 NA
ATOM     23  C   UNL     1     129.245 141.101 167.289  0.00  0.00    +0.000 A 
ATOM     24  C   UNL     1     128.638 139.811 168.015  0.00  0.00    +0.000 A 
ATOM     25  C   UNL     1     129.804 139.653 166.930  0.00  0.00    +0.000 A 
ATOM     26  C   UNL     1     129.225 139.277 167.522  0.00  0.00    +0.000 A 
ENDBRANCH  19  21
ENDBRANCH  18  19
ENDBRANCH  17  18
ENDBRANCH  16  17
ENDBRANCH  15  16
ENDBRANCH  14  15
ENDBRANCH   1  14
TORSDOF 10
ENDMDL
MODEL 15
REMARK VINA RESULT:      -8.1     27.238     30.002
REMARK  Name = 
REMARK  10 active torsions:
REMARK  status: ('A' for Active; 'I' for Inactive)
REMARK    1  A    between atoms: C_1  and  C_3
REMARK    2  A    between atoms: C_1  and  O_5
REMARK    3  A    between atoms: C_2  and  C_4
REMARK    4  A    between atoms: C_2  and  O_10
REMARK    5  A    between atoms: C_3  and  O_11
REMARK    6  A    between atoms: O_5  and  C_9
REMARK    7  A    between atoms: O_10  and  C_25
REMARK    8  A    between atoms: O_11  and  C_24
REMARK    9  A    between atoms: C_19  and  C_24
REMARK   10  A    between atoms: C_19  and  C_25
REMARK                            x       y       z     vdW  Elec       q    Type
REMARK                         _______ _______ _______ _____ _____    ______ ____
ROOT
ATOM      1  C   UNL     1     125.867 143.178 168.783  0.00  0.00    +0.000 C 
ATOM      2  O   UNL     1     126.159 143.886 168.170  0.00  0.00    +0.000 OA
ENDROOT
BRANCH   1   3
ATOM      3  C   UNL     1     125.118 143.396 169.468  0.00  0.00    +0.000 C 
ATOM      4  C   UNL     1     125.697 143.935 169.930  0.00  0.00    +0.000 C 
ATOM      5  C   UNL     1     124.436 143.594 170.092  0.00  0.00    +0.000 C 
BRANCH   3   6
ATOM      6  O   UNL     1     124.525 142.844 168.995  0.00  0.00    +0.000 OA
BRANCH   6   7
ATOM      7  C   UNL     1     123.680 143.036 169.037  0.00  0.00    +0.000 A 
ATOM      8  C   UNL     1     121.895 143.497 169.012  0.00  0.00    +0.000 A 
ATOM      9 CL   UNL     1     121.014 143.714 169.023  0.00  0.00    +0.000 Cl
ATOM     10  C   UNL     1     123.293 143.485 168.316  0.00  0.00    +0.000 A 
ATOM     11  C   UNL     1     123.123 142.838 169.731  0.00  0.00    +0.000 A 
ATOM     12  C   UNL     1     122.262 143.059 169.723  0.00  0.00    +0.000 A 
ATOM     13  C   UNL     1     122.425 143.714 168.295  0.00  0.00    +0.000 A 
ENDBRANCH   6   7
ENDBRANCH   3   6
ENDBRANCH   1   3
BRANCH   1  14
ATOM     14  O   UNL     1     126.152 142.368 168.840  0.00  0.00    +0.000 OA
BRANCH  14  15
ATOM     15  C   UNL     1     126.851 142.199 168.294  0.00  0.00    +0.000 C 
BRANCH  15  16
ATOM     16  C   UNL     1     126.984 141.353 168.003  0.00  0.00    +0.000 C 
BRANCH  16  17
ATOM     17  C   UNL     1     127.804 141.063 167.906  0.00  0.00    +0.000 C 
BRANCH  17  18
ATOM     18  O   UNL     1     128.029 140.158 168.113  0.00  0.00    +0.000 OA
BRANCH  18  19
ATOM     19  C   UNL     1     128.808 139.860 167.789  0.00  0.00    +0.000 C 
ATOM     20  O   UNL     1     129.354 140.354 167.188  0.00  0.00    +0.000 OA
BRANCH  19  21
ATOM     21  C   UNL     1     129.096 139.035 168.048  0.00  0.00    +0.000 A 
ATOM     22  N   UNL     1     130.023 138.129 168.967  0.00  0.00    +0.000 NA
ATOM     23  C   UNL     1     129.732 138.972 168.705  0.00  0.00    +0.000 A 
ATOM     24  C   UNL     1     128.740 138.299 167.644  0.00  0.00    +0.000 A 
ATOM     25  C   UNL     1     129.674 137.385 168.569  0.00  0.00    +0.000 A 
ATOM     26  C   UNL     1     129.043 137.459 167.918  0.00  0.00    +0.000 A 
ENDBRANCH  19  21
ENDBRANCH  18  19
ENDBRANCH  17  18
ENDBRANCH  16  17
ENDBRANCH  15  16
ENDBRANCH  14  15
ENDBRANCH   1  14
TORSDOF 10
ENDMDL
MODEL 16
REMARK VINA RESULT:      -8.1     29.799     32.406
REMARK  Name = 
REMARK  10 active torsions:
REMARK  status: ('A' for Active; 'I' for Inactive)
REMARK    1  A    between atoms: C_1  and  C_3
REMARK    2  A    between atoms: C_1  and  O_5
REMARK    3  A    between atoms: C_2  and  C_4
REMARK    4  A    between atoms: C_2  and  O_10
REMARK    5  A    between atoms: C_3  and  O_11
REMARK    6  A    between atoms: O_5  and  C_9
REMARK    7  A    between atoms: O_10  and  C_25
REMARK    8  A    between atoms: O_11  and  C_24
REMARK    9  A    between atoms: C_19  and  C_24
REMARK   10  A    between atoms: C_19  and  C_25
REMARK                            x       y       z     vdW  Elec       q    Type
REMARK                         _______ _______ _______ _____ _____    ______ ____
ROOT
ATOM      1  C   UNL     1     153.286 133.785 138.698  0.00  0.00    +0.000 C 
ATOM      2  O   UNL     1     152.750 134.473 139.148  0.00  0.00    +0.000 OA
ENDROOT
BRANCH   1   3
ATOM      3  C   UNL     1     154.097 133.381 139.204  0.00  0.00    +0.000 C 
ATOM      4  C   UNL     1     154.553 134.169 139.104  0.00  0.00    +0.000 C 
ATOM      5  C   UNL     1     154.836 133.013 139.664  0.00  0.00    +0.000 C 
BRANCH   3   6
ATOM      6  O   UNL     1     153.631 132.573 139.306  0.00  0.00    +0.000 OA
BRANCH   6   7
ATOM      7  C   UNL     1     153.571 132.245 140.107  0.00  0.00    +0.000 A 
ATOM      8  C   UNL     1     153.437 131.435 141.758  0.00  0.00    +0.000 A 
ATOM      9 CL   UNL     1     153.373 131.059 142.581  0.00  0.00    +0.000 Cl
ATOM     10  C   UNL     1     153.500 131.319 140.201  0.00  0.00    +0.000 A 
ATOM     11  C   UNL     1     153.571 132.728 140.880  0.00  0.00    +0.000 A 
ATOM     12  C   UNL     1     153.506 132.341 141.679  0.00  0.00    +0.000 A 
ATOM     13  C   UNL     1     153.435 130.916 141.000  0.00  0.00    +0.000 A 
ENDBRANCH   6   7
ENDBRANCH   3   6
ENDBRANCH   1   3
BRANCH   1  14
ATOM     14  O   UNL     1     153.178 133.453 137.912  0.00  0.00    +0.000 OA
BRANCH  14  15
ATOM     15  C   UNL     1     152.441 133.766 137.492  0.00  0.00    +0.000 C 
BRANCH  15  16
ATOM     16  C   UNL     1     152.345 133.613 136.607  0.00  0.00    +0.000 C 
BRANCH  16  17
ATOM     17  C   UNL     1     151.631 133.191 136.325  0.00  0.00    +0.000 C 
BRANCH  17  18
ATOM     18  O   UNL     1     151.218 133.429 135.498  0.00  0.00    +0.000 OA
BRANCH  18  19
ATOM     19  C   UNL     1     150.672 132.818 135.139  0.00  0.00    +0.000 C 
ATOM     20  O   UNL     1     150.525 131.956 135.510  0.00  0.00    +0.000 OA
BRANCH  19  21
ATOM     21  C   UNL     1     150.230 133.033 134.370  0.00  0.00    +0.000 A 
ATOM     22  N   UNL     1     148.899 133.483 133.631  0.00  0.00    +0.000 NA
ATOM     23  C   UNL     1     149.345 133.265 134.416  0.00  0.00    +0.000 A 
ATOM     24  C   UNL     1     150.686 133.008 133.581  0.00  0.00    +0.000 A 
ATOM     25  C   UNL     1     149.345 133.462 132.835  0.00  0.00    +0.000 A 
ATOM     26  C   UNL     1     150.223 133.230 132.801  0.00  0.00    +0.000 A 
ENDBRANCH  19  21
ENDBRANCH  18  19
ENDBRANCH  17  18
ENDBRANCH  16  17
ENDBRANCH  15  16
ENDBRANCH  14  15
ENDBRANCH   1  14
TORSDOF 10
ENDMDL
MODEL 17
REMARK VINA RESULT:      -8.0     29.999     31.973
REMARK  Name = 
REMARK  10 active torsions:
REMARK  status: ('A' for Active; 'I' for Inactive)
REMARK    1  A    between atoms: C_1  and  C_3
REMARK    2  A    between atoms: C_1  and  O_5
REMARK    3  A    between atoms: C_2  and  C_4
REMARK    4  A    between atoms: C_2  and  O_10
REMARK    5  A    between atoms: C_3  and  O_11
REMARK    6  A    between atoms: O_5  and  C_9
REMARK    7  A    between atoms: O_10  and  C_25
REMARK    8  A    between atoms: O_11  and  C_24
REMARK    9  A    between atoms: C_19  and  C_24
REMARK   10  A    between atoms: C_19  and  C_25
REMARK                            x       y       z     vdW  Elec       q    Type
REMARK                         _______ _______ _______ _____ _____    ______ ____
ROOT
ATOM      1  C   UNL     1     124.301 143.640 167.190  0.00  0.00    +0.000 C 
ATOM      2  O   UNL     1     124.888 144.393 166.963  0.00  0.00    +0.000 OA
ENDROOT
BRANCH   1   3
ATOM      3  C   UNL     1     123.303 143.837 167.395  0.00  0.00    +0.000 C 
ATOM      4  C   UNL     1     123.067 143.488 166.581  0.00  0.00    +0.000 C 
ATOM      5  C   UNL     1     122.394 144.015 167.581  0.00  0.00    +0.000 C 
BRANCH   3   6
ATOM      6  O   UNL     1     123.544 144.194 168.228  0.00  0.00    +0.000 OA
BRANCH   6   7
ATOM      7  C   UNL     1     123.164 143.859 168.932  0.00  0.00    +0.000 A 
ATOM      8  C   UNL     1     122.463 143.164 170.489  0.00  0.00    +0.000 A 
ATOM      9 CL   UNL     1     122.097 142.819 171.244  0.00  0.00    +0.000 Cl
ATOM     10  C   UNL     1     123.666 143.793 169.716  0.00  0.00    +0.000 A 
ATOM     11  C   UNL     1     122.304 143.560 168.980  0.00  0.00    +0.000 A 
ATOM     12  C   UNL     1     121.962 143.224 169.730  0.00  0.00    +0.000 A 
ATOM     13  C   UNL     1     123.334 143.456 170.479  0.00  0.00    +0.000 A 
ENDBRANCH   6   7
ENDBRANCH   3   6
ENDBRANCH   1   3
BRANCH   1  14
ATOM     14  O   UNL     1     124.500 142.806 167.247  0.00  0.00    +0.000 OA
BRANCH  14  15
ATOM     15  C   UNL     1     125.390 142.650 167.226  0.00  0.00    +0.000 C 
BRANCH  15  16
ATOM     16  C   UNL     1     125.708 141.882 167.579  0.00  0.00    +0.000 C 
BRANCH  16  17
ATOM     17  C   UNL     1     126.509 141.878 167.932  0.00  0.00    +0.000 C 
BRANCH  17  18
ATOM     18  O   UNL     1     126.679 142.324 168.759  0.00  0.00    +0.000 OA
BRANCH  18  19
ATOM     19  C   UNL     1     127.499 142.222 169.102  0.00  0.00    +0.000 C 
ATOM     20  O   UNL     1     128.048 141.462 168.945  0.00  0.00    +0.000 OA
BRANCH  19  21
ATOM     21  C   UNL     1     127.831 142.886 169.632  0.00  0.00    +0.000 A 
ATOM     22  N   UNL     1     128.974 143.937 169.967  0.00  0.00    +0.000 NA
ATOM     23  C   UNL     1     128.640 143.261 169.424  0.00  0.00    +0.000 A 
ATOM     24  C   UNL     1     127.343 143.153 170.355  0.00  0.00    +0.000 A 
ATOM     25  C   UNL     1     128.494 144.213 170.693  0.00  0.00    +0.000 A 
ATOM     26  C   UNL     1     127.692 143.834 170.892  0.00  0.00    +0.000 A 
ENDBRANCH  19  21
ENDBRANCH  18  19
ENDBRANCH  17  18
ENDBRANCH  16  17
ENDBRANCH  15  16
ENDBRANCH  14  15
ENDBRANCH   1  14
TORSDOF 10
ENDMDL
MODEL 18
REMARK VINA RESULT:      -7.8     79.726     83.013
REMARK  Name = 
REMARK  10 active torsions:
REMARK  status: ('A' for Active; 'I' for Inactive)
REMARK    1  A    between atoms: C_1  and  C_3
REMARK    2  A    between atoms: C_1  and  O_5
REMARK    3  A    between atoms: C_2  and  C_4
REMARK    4  A    between atoms: C_2  and  O_10
REMARK    5  A    between atoms: C_3  and  O_11
REMARK    6  A    between atoms: O_5  and  C_9
REMARK    7  A    between atoms: O_10  and  C_25
REMARK    8  A    between atoms: O_11  and  C_24
REMARK    9  A    between atoms: C_19  and  C_24
REMARK   10  A    between atoms: C_19  and  C_25
REMARK                            x       y       z     vdW  Elec       q    Type
REMARK                         _______ _______ _______ _____ _____    ______ ____
ROOT
ATOM      1  C   UNL     1     134.438 153.201  89.132  0.00  0.00    +0.000 C 
ATOM      2  O   UNL     1     135.342 153.574  89.063  0.00  0.00    +0.000 OA
ENDROOT
BRANCH   1   3
ATOM      3  C   UNL     1     134.062 152.988  90.076  0.00  0.00    +0.000 C 
ATOM      4  C   UNL     1     134.075 153.881  90.282  0.00  0.00    +0.000 C 
ATOM      5  C   UNL     1     133.720 152.795  90.936  0.00  0.00    +0.000 C 
BRANCH   3   6
ATOM      6  O   UNL     1     134.049 152.074  89.866  0.00  0.00    +0.000 OA
BRANCH   6   7
ATOM      7  C   UNL     1     134.412 151.527  90.433  0.00  0.00    +0.000 A 
ATOM      8  C   UNL     1     135.093 150.284  91.612  0.00  0.00    +0.000 A 
ATOM      9 CL   UNL     1     135.447 149.689  92.198  0.00  0.00    +0.000 Cl
ATOM     10  C   UNL     1     134.014 150.693  90.559  0.00  0.00    +0.000 A 
ATOM     11  C   UNL     1     135.160 151.694  90.928  0.00  0.00    +0.000 A 
ATOM     12  C   UNL     1     135.491 151.097  91.497  0.00  0.00    +0.000 A 
ATOM     13  C   UNL     1     134.339 150.081  91.130  0.00  0.00    +0.000 A 
ENDBRANCH   6   7
ENDBRANCH   3   6
ENDBRANCH   1   3
BRANCH   1  14
ATOM     14  O   UNL     1     133.886 153.015  88.499  0.00  0.00    +0.000 OA
BRANCH  14  15
ATOM     15  C   UNL     1     134.193 153.244  87.681  0.00  0.00    +0.000 C 
BRANCH  15  16
ATOM     16  C   UNL     1     133.656 153.127  86.964  0.00  0.00    +0.000 C 
BRANCH  16  17
ATOM     17  C   UNL     1     134.002 153.187  86.162  0.00  0.00    +0.000 C 
BRANCH  17  18
ATOM     18  O   UNL     1     133.714 153.866  85.555  0.00  0.00    +0.000 OA
BRANCH  18  19
ATOM     19  C   UNL     1     133.934 153.747  84.696  0.00  0.00    +0.000 C 
ATOM     20  O   UNL     1     134.195 152.912  84.327  0.00  0.00    +0.000 OA
BRANCH  19  21
ATOM     21  C   UNL     1     133.908 154.470  84.140  0.00  0.00    +0.000 A 
ATOM     22  N   UNL     1     133.072 155.531  83.304  0.00  0.00    +0.000 NA
ATOM     23  C   UNL     1     133.095 154.794  83.870  0.00  0.00    +0.000 A 
ATOM     24  C   UNL     1     134.694 154.845  83.872  0.00  0.00    +0.000 A 
ATOM     25  C   UNL     1     133.853 155.915  83.029  0.00  0.00    +0.000 A 
ATOM     26  C   UNL     1     134.655 155.585  83.303  0.00  0.00    +0.000 A 
ENDBRANCH  19  21
ENDBRANCH  18  19
ENDBRANCH  17  18
ENDBRANCH  16  17
ENDBRANCH  15  16
ENDBRANCH  14  15
ENDBRANCH   1  14
TORSDOF 10
ENDMDL
MODEL 19
REMARK VINA RESULT:      -7.7     72.315     73.735
REMARK  Name = 
REMARK  10 active torsions:
REMARK  status: ('A' for Active; 'I' for Inactive)
REMARK    1  A    between atoms: C_1  and  C_3
REMARK    2  A    between atoms: C_1  and  O_5
REMARK    3  A    between atoms: C_2  and  C_4
REMARK    4  A    between atoms: C_2  and  O_10
REMARK    5  A    between atoms: C_3  and  O_11
REMARK    6  A    between atoms: O_5  and  C_9
REMARK    7  A    between atoms: O_10  and  C_25
REMARK    8  A    between atoms: O_11  and  C_24
REMARK    9  A    between atoms: C_19  and  C_24
REMARK   10  A    between atoms: C_19  and  C_25
REMARK                            x       y       z     vdW  Elec       q    Type
REMARK                         _______ _______ _______ _____ _____    ______ ____
ROOT
ATOM      1  C   UNL     1     117.544 146.427  97.808  0.00  0.00    +0.000 C 
ATOM      2  O   UNL     1     118.059 147.262  97.791  0.00  0.00    +0.000 OA
ENDROOT
BRANCH   1   3
ATOM      3  C   UNL     1     117.886 145.624  97.244  0.00  0.00    +0.000 C 
ATOM      4  C   UNL     1     117.788 146.120  96.480  0.00  0.00    +0.000 C 
ATOM      5  C   UNL     1     118.197 144.894  96.731  0.00  0.00    +0.000 C 
BRANCH   3   6
ATOM      6  O   UNL     1     117.985 145.117  98.027  0.00  0.00    +0.000 OA
BRANCH   6   7
ATOM      7  C   UNL     1     118.734 144.692  98.135  0.00  0.00    +0.000 A 
ATOM      8  C   UNL     1     120.258 143.684  98.374  0.00  0.00    +0.000 A 
ATOM      9 CL   UNL     1     121.023 143.208  98.490  0.00  0.00    +0.000 Cl
ATOM     10  C   UNL     1     118.703 143.767  98.253  0.00  0.00    +0.000 A 
ATOM     11  C   UNL     1     119.563 145.071  98.145  0.00  0.00    +0.000 A 
ATOM     12  C   UNL     1     120.301 144.587  98.260  0.00  0.00    +0.000 A 
ATOM     13  C   UNL     1     119.440 143.268  98.370  0.00  0.00    +0.000 A 
ENDBRANCH   6   7
ENDBRANCH   3   6
ENDBRANCH   1   3
BRANCH   1  14
ATOM     14  O   UNL     1     116.820 146.253  98.238  0.00  0.00    +0.000 OA
BRANCH  14  15
ATOM     15  C   UNL     1     116.422 146.991  98.576  0.00  0.00    +0.000 C 
BRANCH  15  16
ATOM     16  C   UNL     1     115.714 146.892  99.128  0.00  0.00    +0.000 C 
BRANCH  16  17
ATOM     17  C   UNL     1     115.153 147.557  99.221  0.00  0.00    +0.000 C 
BRANCH  17  18
ATOM     18  O   UNL     1     115.063 148.007 100.059  0.00  0.00    +0.000 OA
BRANCH  18  19
ATOM     19  C   UNL     1     114.383 148.584 100.127  0.00  0.00    +0.000 C 
ATOM     20  O   UNL     1     113.738 148.725  99.443  0.00  0.00    +0.000 OA
BRANCH  19  21
ATOM     21  C   UNL     1     114.301 149.067 100.896  0.00  0.00    +0.000 A 
ATOM     22  N   UNL     1     114.777 150.265 101.824  0.00  0.00    +0.000 NA
ATOM     23  C   UNL     1     114.863 149.776 101.039  0.00  0.00    +0.000 A 
ATOM     24  C   UNL     1     113.661 148.825 101.499  0.00  0.00    +0.000 A 
ATOM     25  C   UNL     1     114.139 150.032 102.435  0.00  0.00    +0.000 A 
ATOM     26  C   UNL     1     113.587 149.326 102.284  0.00  0.00    +0.000 A 
ENDBRANCH  19  21
ENDBRANCH  18  19
ENDBRANCH  17  18
ENDBRANCH  16  17
ENDBRANCH  15  16
ENDBRANCH  14  15
ENDBRANCH   1  14
TORSDOF 10
ENDMDL
MODEL 20
REMARK VINA RESULT:      -7.6     41.018     42.236
REMARK  Name = 
REMARK  10 active torsions:
REMARK  status: ('A' for Active; 'I' for Inactive)
REMARK    1  A    between atoms: C_1  and  C_3
REMARK    2  A    between atoms: C_1  and  O_5
REMARK    3  A    between atoms: C_2  and  C_4
REMARK    4  A    between atoms: C_2  and  O_10
REMARK    5  A    between atoms: C_3  and  O_11
REMARK    6  A    between atoms: O_5  and  C_9
REMARK    7  A    between atoms: O_10  and  C_25
REMARK    8  A    between atoms: O_11  and  C_24
REMARK    9  A    between atoms: C_19  and  C_24
REMARK   10  A    between atoms: C_19  and  C_25
REMARK                            x       y       z     vdW  Elec       q    Type
REMARK                         _______ _______ _______ _____ _____    ______ ____
ROOT
ATOM      1  C   UNL     1     111.405 126.070 132.274  0.00  0.00    +0.000 C 
ATOM      2  O   UNL     1     111.375 126.880 131.720  0.00  0.00    +0.000 OA
ENDROOT
BRANCH   1   3
ATOM      3  C   UNL     1     111.714 125.182 131.834  0.00  0.00    +0.000 C 
ATOM      4  C   UNL     1     110.897 125.097 131.430  0.00  0.00    +0.000 C 
ATOM      5  C   UNL     1     111.996 124.374 131.434  0.00  0.00    +0.000 C 
BRANCH   3   6
ATOM      6  O   UNL     1     112.552 125.270 132.248  0.00  0.00    +0.000 OA
BRANCH   6   7
ATOM      7  C   UNL     1     113.255 125.100 131.768  0.00  0.00    +0.000 A 
ATOM      8  C   UNL     1     114.771 124.861 130.747  0.00  0.00    +0.000 A 
ATOM      9 CL   UNL     1     115.513 124.719 130.244  0.00  0.00    +0.000 Cl
ATOM     10  C   UNL     1     113.789 125.816 131.498  0.00  0.00    +0.000 A 
ATOM     11  C   UNL     1     113.526 124.272 131.497  0.00  0.00    +0.000 A 
ATOM     12  C   UNL     1     114.257 124.153 131.004  0.00  0.00    +0.000 A 
ATOM     13  C   UNL     1     114.529 125.709 131.001  0.00  0.00    +0.000 A 
ENDBRANCH   6   7
ENDBRANCH   3   6
ENDBRANCH   1   3
BRANCH   1  14
ATOM     14  O   UNL     1     111.203 125.983 133.106  0.00  0.00    +0.000 OA
BRANCH  14  15
ATOM     15  C   UNL     1     110.900 126.748 133.480  0.00  0.00    +0.000 C 
BRANCH  15  16
ATOM     16  C   UNL     1     110.575 126.724 134.322  0.00  0.00    +0.000 C 
BRANCH  16  17
ATOM     17  C   UNL     1     110.517 127.470 134.775  0.00  0.00    +0.000 C 
BRANCH  17  18
ATOM     18  O   UNL     1     109.690 127.945 134.830  0.00  0.00    +0.000 OA
BRANCH  18  19
ATOM     19  C   UNL     1     109.675 128.650 135.380  0.00  0.00    +0.000 C 
ATOM     20  O   UNL     1     110.381 128.871 135.977  0.00  0.00    +0.000 OA
BRANCH  19  21
ATOM     21  C   UNL     1     108.940 129.191 135.369  0.00  0.00    +0.000 A 
ATOM     22  N   UNL     1     107.555 129.640 136.003  0.00  0.00    +0.000 NA
ATOM     23  C   UNL     1     108.302 129.088 136.018  0.00  0.00    +0.000 A 
ATOM     24  C   UNL     1     108.867 129.817 134.711  0.00  0.00    +0.000 A 
ATOM     25  C   UNL     1     107.471 130.271 135.348  0.00  0.00    +0.000 A 
ATOM     26  C   UNL     1     108.111 130.365 134.709  0.00  0.00    +0.000 A 
ENDBRANCH  19  21
ENDBRANCH  18  19
ENDBRANCH  17  18
ENDBRANCH  16  17
ENDBRANCH  15  16
ENDBRANCH  14  15
ENDBRANCH   1  14
TORSDOF 10
ENDMDL
