REMARK  Name = 
REMARK  6 active torsions:
REMARK  status: ('A' for Active; 'I' for Inactive)
REMARK    1  A    between atoms: C_6  and  O_44
REMARK    2  A    between atoms: C_14  and  C_28
REMARK    3  A    between atoms: C_20  and  O_50
REMARK    4  A    between atoms: C_27  and  O_51
REMARK    5  A    between atoms: C_28  and  C_35
REMARK    6  A    between atoms: C_35  and  C_38
REMARK                            x       y       z     vdW  Elec       q    Type
REMARK                         _______ _______ _______ _____ _____    ______ ____
ROOT
ATOM      1  C   UNL     1      -1.708 -10.625   0.000  0.00  0.00    +0.000 C 
ATOM      2  C   UNL     1      -1.708 -11.329   0.000  0.00  0.00    +0.000 C 
ATOM      3  C   UNL     1      -1.096 -10.267   0.000  0.00  0.00    +0.000 C 
ATOM      4  N   UNL     1      -1.096  -9.562   0.000  0.00  0.00    +0.000 N 
ATOM      5  C   UNL     1       0.129  -9.562   0.000  0.00  0.00    +0.000 C 
ATOM      6  C   UNL     1       3.196 -13.454   0.000  0.00  0.00    +0.000 C 
ATOM      7  O   UNL     1       0.742  -9.204   0.000  0.00  0.00    +0.000 OA
ATOM      8  C   UNL     1       3.808 -13.812   0.000  0.00  0.00    +0.000 C 
ATOM      9  C   UNL     1       2.583 -12.392   0.000  0.00  0.00    +0.000 C 
ATOM     10  C   UNL     1      -0.483  -9.204   0.000  0.00  0.00    +0.000 C 
ATOM     11  O   UNL     1      -1.096 -11.679   0.000  0.00  0.00    +0.000 OA
ATOM     12  C   UNL     1       3.196 -12.750   0.000  0.00  0.00    +0.000 C 
ATOM     13  C   UNL     1       2.583 -11.688   0.000  0.00  0.00    +0.000 C 
ATOM     14  C   UNL     1       1.354  -9.562   0.000  0.00  0.00    +0.000 C 
ATOM     15  C   UNL     1       1.971 -10.625   0.000  0.00  0.00    +0.000 C 
ATOM     16  C   UNL     1       1.354 -10.267   0.000  0.00  0.00    +0.000 C 
ATOM     17  C   UNL     1       3.808 -14.517   0.000  0.00  0.00    +0.000 C 
ATOM     18  C   UNL     1       1.971 -11.329   0.000  0.00  0.00    +0.000 C 
ATOM     19  C   UNL     1       0.129 -13.787   0.000  0.00  0.00    +0.000 C 
ATOM     20  C   UNL     1      -0.483 -13.438   0.000  0.00  0.00    +0.000 C 
ATOM     21  O   UNL     1      -2.325 -10.271   0.000  0.00  0.00    +0.000 OA
ATOM     22  C   UNL     1      -2.317 -11.679   0.000  0.00  0.00    +0.000 C 
ATOM     23  C   UNL     1      -0.483 -12.729   0.000  0.00  0.00    +0.000 C 
ATOM     24  O   UNL     1      -0.483 -10.621   0.000  0.00  0.00    +0.000 OA
ATOM     25  C   UNL     1      -1.092 -12.379   0.000  0.00  0.00    +0.000 C 
ATOM     26  O   UNL     1       0.129 -10.267   0.000  0.00  0.00    +0.000 OA
ATOM     27  O   UNL     1       4.425 -13.454   0.000  0.00  0.00    +0.000 OA
ATOM     28  C   UNL     1       0.129 -14.492   0.000  0.00  0.00    +0.000 C 
ATOM     29  O   UNL     1      -1.096 -10.967   0.000  0.00  0.00    +0.000 OA
ATOM     30  C   UNL     1       3.054 -14.867   0.000  0.00  0.00    +0.000 C 
ATOM     31  O   UNL     1       2.583 -10.267   0.000  0.00  0.00    +0.000 OA
ATOM     32  C   UNL     1       0.742 -14.842   0.000  0.00  0.00    +0.000 C 
ATOM     33  C   UNL     1       0.742 -15.550   0.000  0.00  0.00    +0.000 C 
ATOM     34  C   UNL     1       1.358 -15.900   0.000  0.00  0.00    +0.000 C 
ATOM     35  C   UNL     1       1.971 -15.542   0.000  0.00  0.00    +0.000 C 
ATOM     36  C   UNL     1      -2.317 -12.387   0.000  0.00  0.00    +0.000 C 
ATOM     37  C   UNL     1      -1.712  -9.208   0.000  0.00  0.00    +0.000 C 
ATOM     38  O   UNL     1       3.808 -12.392   0.000  0.00  0.00    +0.000 OA
ATOM     39  C   UNL     1      -1.704 -12.738   0.000  0.00  0.00    +0.000 C 
ATOM     40  C   UNL     1       2.679 -15.542   0.000  0.00  0.00    +0.000 C 
ATOM     41  C   UNL     1       1.971 -12.750   0.000  0.00  0.00    +0.000 C 
ATOM     42  C   UNL     1      -0.483  -8.500   0.000  0.00  0.00    +0.000 C 
ATOM     43  C   UNL     1       0.742 -13.429   0.000  0.00  0.00    +0.000 C 
ATOM     44  C   UNL     1       4.404 -14.900   0.000  0.00  0.00    +0.000 C 
ATOM     45  C   UNL     1       1.354 -11.688   0.000  0.00  0.00    +0.000 C 
ATOM     46  C   UNL     1      -2.929 -11.329   0.000  0.00  0.00    +0.000 C 
ATOM     47  C   UNL     1       3.038 -16.150   0.000  0.00  0.00    +0.000 C 
ATOM     48  C   UNL     1      -1.708  -8.500   0.000  0.00  0.00    +0.000 C 
ATOM     49  C   UNL     1      -1.096  -8.146   0.000  0.00  0.00    +0.000 C 
ENDROOT
BRANCH  14  50
ATOM     50  C   UNL     1       1.971  -9.204   0.000  0.00  0.00    +0.000 C 
ATOM     51  C   UNL     1       2.583  -9.562   0.000  0.00  0.00    +0.000 C 
BRANCH  50  52
ATOM     52  C   UNL     1       1.971  -8.500   0.000  0.00  0.00    +0.000 C 
BRANCH  52  56
ATOM     53  C   UNL     1       3.804  -8.146   0.000  0.00  0.00    +0.000 C 
ATOM     54  C   UNL     1       3.192  -8.500   0.000  0.00  0.00    +0.000 C 
ATOM     55  C   UNL     1       3.808  -7.438   0.000  0.00  0.00    +0.000 C 
ATOM     56  C   UNL     1       2.583  -8.142   0.000  0.00  0.00    +0.000 C 
ATOM     57  C   UNL     1       3.196  -7.083   0.000  0.00  0.00    +0.000 C 
ATOM     58  C   UNL     1       2.575  -7.438   0.000  0.00  0.00    +0.000 C 
ATOM     59  O   UNL     1       4.421  -7.088   0.000  0.00  0.00    +0.000 OA
BRANCH  53  60
ATOM     60  O   UNL     1       4.417  -8.504   0.000  0.00  0.00    +0.000 OA
ATOM     61  C   UNL     1       5.029  -8.154   0.000  0.00  0.00    +0.000 C 
ENDBRANCH  53  60
ENDBRANCH  52  56
ENDBRANCH  50  52
ENDBRANCH  14  50
BRANCH   6  62
ATOM     62  O   UNL     1       2.583 -13.812   0.000  0.00  0.00    +0.000 OA
ATOM     63  C   UNL     1       1.971 -13.454   0.000  0.00  0.00    +0.000 C 
ENDBRANCH   6  62
BRANCH  20  64
ATOM     64  O   UNL     1      -1.100 -13.792   0.000  0.00  0.00    +0.000 OA
ATOM     65  C   UNL     1      -1.712 -13.438   0.000  0.00  0.00    +0.000 C 
ENDBRANCH  20  64
TORSDOF 6
