REMARK  Name = 
REMARK  3 active torsions:
REMARK  status: ('A' for Active; 'I' for Inactive)
REMARK    1  A    between atoms: C_9  and  C_25
REMARK    2  A    between atoms: C_25  and  C_26
REMARK    3  A    between atoms: C_26  and  C_27
REMARK                            x       y       z     vdW  Elec       q    Type
REMARK                         _______ _______ _______ _____ _____    ______ ____
ROOT
ATOM      1  C   UNL     1       2.106   0.684   0.000  0.00  0.00    +0.000 C 
ATOM      2  C   UNL     1       0.000   1.096   0.000  0.00  0.00    +0.000 C 
ATOM      3  C   UNL     1       0.673   0.684   0.000  0.00  0.00    +0.000 C 
ATOM      4  C   UNL     1      -1.476  -0.543   0.000  0.00  0.00    +0.000 C 
ATOM      5  C   UNL     1       0.673  -0.141   0.000  0.00  0.00    +0.000 C 
ATOM      6  C   UNL     1      -2.193  -0.141   0.000  0.00  0.00    +0.000 C 
ATOM      7  C   UNL     1      -0.771   0.684   0.000  0.00  0.00    +0.000 C 
ATOM      8  C   UNL     1       2.106  -0.141   0.000  0.00  0.00    +0.000 C 
ATOM      9  C   UNL     1       1.389   1.096   0.000  0.00  0.00    +0.000 C 
ATOM     10  C   UNL     1       0.682   1.358   0.000  0.00  0.00    +0.000 C 
ATOM     11  C   UNL     1      -1.478   0.131   0.000  0.00  0.00    +0.000 C 
ATOM     12  C   UNL     1      -2.920  -0.543   0.000  0.00  0.00    +0.000 C 
ATOM     13  C   UNL     1      -2.920  -1.368   0.000  0.00  0.00    +0.000 C 
ATOM     14  C   UNL     1      -2.193  -1.769   0.000  0.00  0.00    +0.000 C 
ATOM     15  C   UNL     1      -1.476  -1.368   0.000  0.00  0.00    +0.000 C 
ATOM     16  C   UNL     1      -0.771  -1.769   0.000  0.00  0.00    +0.000 C 
ATOM     17  C   UNL     1       0.000  -1.368   0.000  0.00  0.00    +0.000 C 
ATOM     18  C   UNL     1       0.000  -0.543   0.000  0.00  0.00    +0.000 C 
ATOM     19  C   UNL     1      -0.771  -0.141   0.000  0.00  0.00    +0.000 C 
ATOM     20  O   UNL     1      -3.501  -1.710   0.000  0.00  0.00    +0.000 OA
ATOM     21  O   UNL     1       1.176   1.893   0.000  0.00  0.00    +0.000 OA
ENDROOT
BRANCH   9  22
ATOM     22  C   UNL     1       2.104   1.509   0.000  0.00  0.00    +0.000 C 
BRANCH  22  23
ATOM     23  C   UNL     1       2.818   1.096   0.000  0.00  0.00    +0.000 C 
BRANCH  23  24
ATOM     24  C   UNL     1       3.533   1.509   0.000  0.00  0.00    +0.000 C 
ATOM     25  O   UNL     1       4.247   1.096   0.000  0.00  0.00    +0.000 OA
ATOM     26  O   UNL     1       3.533   2.334   0.000  0.00  0.00    +0.000 OA
ENDBRANCH  23  24
ENDBRANCH  22  23
ENDBRANCH   9  22
TORSDOF 3
