REMARK  Name = 
REMARK  1 active torsions:
REMARK  status: ('A' for Active; 'I' for Inactive)
REMARK    1  A    between atoms: C_4  and  C_14
REMARK                            x       y       z     vdW  Elec       q    Type
REMARK                         _______ _______ _______ _____ _____    ______ ____
ROOT
ATOM      1  C   UNL     1       5.692  -5.312   0.000  0.00  0.00    +0.000 A 
ATOM      2  N   UNL     1       4.467  -5.312   0.000  0.00  0.00    +0.000 N 
ATOM      3  N   UNL     1       6.312  -4.254   0.000  0.00  0.00    +0.000 NA
ATOM      4  C   UNL     1       3.850  -5.662   0.000  0.00  0.00    +0.000 C 
ATOM      5  C   UNL     1       6.929  -5.312   0.000  0.00  0.00    +0.000 A 
ATOM      6  C   UNL     1       5.692  -4.612   0.000  0.00  0.00    +0.000 A 
ATOM      7  N   UNL     1       6.929  -4.612   0.000  0.00  0.00    +0.000 NA
ATOM      8  C   UNL     1       6.312  -5.662   0.000  0.00  0.00    +0.000 A 
ATOM      9  C   UNL     1       5.079  -5.662   0.000  0.00  0.00    +0.000 C 
ATOM     10  N   UNL     1       7.542  -5.662   0.000  0.00  0.00    +0.000 NA
ATOM     11  C   UNL     1       5.079  -4.254   0.000  0.00  0.00    +0.000 C 
ATOM     12  C   UNL     1       4.467  -4.612   0.000  0.00  0.00    +0.000 C 
ATOM     13  O   UNL     1       3.837  -6.379   0.000  0.00  0.00    +0.000 OA
ATOM     14  N   UNL     1       8.175  -5.662   0.000  0.00  0.00    +0.000 NA
ENDROOT
BRANCH   4  15
ATOM     15  C   UNL     1       3.229  -5.300   0.000  0.00  0.00    +0.000 A 
ATOM     16  C   UNL     1       3.229  -4.562   0.000  0.00  0.00    +0.000 A 
ATOM     17  C   UNL     1       2.592  -5.642   0.000  0.00  0.00    +0.000 A 
ATOM     18  C   UNL     1       2.617  -4.188   0.000  0.00  0.00    +0.000 A 
ATOM     19  C   UNL     1       1.967  -5.279   0.000  0.00  0.00    +0.000 A 
ATOM     20  C   UNL     1       1.967  -4.550   0.000  0.00  0.00    +0.000 A 
ENDBRANCH   4  15
TORSDOF 1
