MODEL 1
REMARK VINA RESULT:      -8.2      0.000      0.000
REMARK  Name = 
REMARK  9 active torsions:
REMARK  status: ('A' for Active; 'I' for Inactive)
REMARK    1  A    between atoms: C_1  and  C_2
REMARK    2  A    between atoms: N_4  and  C_6
REMARK    3  A    between atoms: N_4  and  C_13
REMARK    4  A    between atoms: C_6  and  C_9
REMARK    5  A    between atoms: N_8  and  C_9
REMARK    6  A    between atoms: N_8  and  C_15
REMARK    7  A    between atoms: N_8  and  C_16
REMARK    8  A    between atoms: C_13  and  C_18
REMARK    9  A    between atoms: C_18  and  C_19
REMARK                            x       y       z     vdW  Elec       q    Type
REMARK                         _______ _______ _______ _____ _____    ______ ____
ROOT
ATOM      1  C   UNL     1     106.657 142.746 161.580  0.00  0.00    +0.000 C 
ATOM      2  N   UNL     1     106.281 142.121 161.021  0.00  0.00    +0.000 N 
ATOM      3  O   UNL     1     106.537 143.742 161.502  0.00  0.00    +0.000 OA
ENDROOT
BRANCH   1   4
ATOM      4  C   UNL     1     107.215 142.329 162.297  0.00  0.00    +0.000 A 
ATOM      5  C   UNL     1     106.957 142.463 163.255  0.00  0.00    +0.000 A 
ATOM      6  C   UNL     1     107.509 142.051 163.964  0.00  0.00    +0.000 A 
ATOM      7  C   UNL     1     108.009 141.794 162.046  0.00  0.00    +0.000 A 
ATOM      8  C   UNL     1     106.162 142.999 163.507  0.00  0.00    +0.000 A 
ATOM      9  C   UNL     1     108.561 141.382 162.755  0.00  0.00    +0.000 A 
ATOM     10  C   UNL     1     108.315 141.508 163.709  0.00  0.00    +0.000 A 
ATOM     11  C   UNL     1     107.262 142.177 164.919  0.00  0.00    +0.000 A 
ATOM     12  C   UNL     1     105.909 143.130 164.459  0.00  0.00    +0.000 A 
ATOM     13  C   UNL     1     106.460 142.718 165.168  0.00  0.00    +0.000 A 
ENDBRANCH   1   4
BRANCH   2  14
ATOM     14  C   UNL     1     105.750 142.517 160.340  0.00  0.00    +0.000 C 
BRANCH  14  15
ATOM     15  C   UNL     1     106.126 142.431 159.456  0.00  0.00    +0.000 C 
BRANCH  15  16
ATOM     16  N   UNL     1     105.675 142.880 158.695  0.00  0.00    +0.000 NA
BRANCH  16  17
ATOM     17  C   UNL     1     106.050 143.830 158.346  0.00  0.00    +0.000 C 
ATOM     18  C   UNL     1     105.474 144.486 157.961  0.00  0.00    +0.000 C 
ENDBRANCH  16  17
BRANCH  16  19
ATOM     19  C   UNL     1     104.959 142.540 158.267  0.00  0.00    +0.000 C 
ATOM     20  C   UNL     1     104.990 141.788 157.650  0.00  0.00    +0.000 C 
ENDBRANCH  16  19
ENDBRANCH  15  16
ENDBRANCH  14  15
ENDBRANCH   2  14
BRANCH   2  21
ATOM     21  C   UNL     1     106.306 141.214 160.979  0.00  0.00    +0.000 C 
BRANCH  21  22
ATOM     22  C   UNL     1     105.517 140.600 161.067  0.00  0.00    +0.000 C 
BRANCH  22  23
ATOM     23  C   UNL     1     105.684 139.641 161.021  0.00  0.00    +0.000 C 
ATOM     24  C   UNL     1     105.438 139.110 161.809  0.00  0.00    +0.000 C 
ENDBRANCH  22  23
ENDBRANCH  21  22
ENDBRANCH   2  21
TORSDOF 9
ENDMDL
MODEL 2
REMARK VINA RESULT:      -7.8      1.720      2.326
REMARK  Name = 
REMARK  9 active torsions:
REMARK  status: ('A' for Active; 'I' for Inactive)
REMARK    1  A    between atoms: C_1  and  C_2
REMARK    2  A    between atoms: N_4  and  C_6
REMARK    3  A    between atoms: N_4  and  C_13
REMARK    4  A    between atoms: C_6  and  C_9
REMARK    5  A    between atoms: N_8  and  C_9
REMARK    6  A    between atoms: N_8  and  C_15
REMARK    7  A    between atoms: N_8  and  C_16
REMARK    8  A    between atoms: C_13  and  C_18
REMARK    9  A    between atoms: C_18  and  C_19
REMARK                            x       y       z     vdW  Elec       q    Type
REMARK                         _______ _______ _______ _____ _____    ______ ____
ROOT
ATOM      1  C   UNL     1     106.967 143.733 162.727  0.00  0.00    +0.000 C 
ATOM      2  N   UNL     1     106.588 143.427 161.948  0.00  0.00    +0.000 N 
ATOM      3  O   UNL     1     107.185 144.695 162.929  0.00  0.00    +0.000 OA
ENDROOT
BRANCH   1   4
ATOM      4  C   UNL     1     107.149 142.996 163.378  0.00  0.00    +0.000 A 
ATOM      5  C   UNL     1     106.574 142.914 164.194  0.00  0.00    +0.000 A 
ATOM      6  C   UNL     1     106.753 142.186 164.837  0.00  0.00    +0.000 A 
ATOM      7  C   UNL     1     107.891 142.364 163.203  0.00  0.00    +0.000 A 
ATOM      8  C   UNL     1     105.831 143.546 164.369  0.00  0.00    +0.000 A 
ATOM      9  C   UNL     1     108.070 141.636 163.846  0.00  0.00    +0.000 A 
ATOM     10  C   UNL     1     107.507 141.544 164.660  0.00  0.00    +0.000 A 
ATOM     11  C   UNL     1     106.189 142.094 165.651  0.00  0.00    +0.000 A 
ATOM     12  C   UNL     1     105.262 143.461 165.180  0.00  0.00    +0.000 A 
ATOM     13  C   UNL     1     105.442 142.733 165.823  0.00  0.00    +0.000 A 
ENDBRANCH   1   4
BRANCH   2  14
ATOM     14  C   UNL     1     106.415 144.127 161.330  0.00  0.00    +0.000 C 
BRANCH  14  15
ATOM     15  C   UNL     1     105.476 144.308 161.200  0.00  0.00    +0.000 C 
BRANCH  15  16
ATOM     16  N   UNL     1     105.206 145.142 160.739  0.00  0.00    +0.000 NA
BRANCH  16  17
ATOM     17  C   UNL     1     104.478 145.790 161.204  0.00  0.00    +0.000 C 
ATOM     18  C   UNL     1     103.662 145.452 161.564  0.00  0.00    +0.000 C 
ENDBRANCH  16  17
BRANCH  16  19
ATOM     19  C   UNL     1     105.534 145.401 159.941  0.00  0.00    +0.000 C 
ATOM     20  C   UNL     1     105.650 146.328 159.665  0.00  0.00    +0.000 C 
ENDBRANCH  16  19
ENDBRANCH  15  16
ENDBRANCH  14  15
ENDBRANCH   2  14
BRANCH   2  21
ATOM     21  C   UNL     1     106.344 142.607 161.643  0.00  0.00    +0.000 C 
BRANCH  21  22
ATOM     22  C   UNL     1     106.635 142.192 160.777  0.00  0.00    +0.000 C 
BRANCH  22  23
ATOM     23  C   UNL     1     106.363 141.273 160.602  0.00  0.00    +0.000 C 
ATOM     24  C   UNL     1     106.476 140.944 159.685  0.00  0.00    +0.000 C 
ENDBRANCH  22  23
ENDBRANCH  21  22
ENDBRANCH   2  21
TORSDOF 9
ENDMDL
MODEL 3
REMARK VINA RESULT:      -7.8      1.297      1.794
REMARK  Name = 
REMARK  9 active torsions:
REMARK  status: ('A' for Active; 'I' for Inactive)
REMARK    1  A    between atoms: C_1  and  C_2
REMARK    2  A    between atoms: N_4  and  C_6
REMARK    3  A    between atoms: N_4  and  C_13
REMARK    4  A    between atoms: C_6  and  C_9
REMARK    5  A    between atoms: N_8  and  C_9
REMARK    6  A    between atoms: N_8  and  C_15
REMARK    7  A    between atoms: N_8  and  C_16
REMARK    8  A    between atoms: C_13  and  C_18
REMARK    9  A    between atoms: C_18  and  C_19
REMARK                            x       y       z     vdW  Elec       q    Type
REMARK                         _______ _______ _______ _____ _____    ______ ____
ROOT
ATOM      1  C   UNL     1     106.686 141.912 160.281  0.00  0.00    +0.000 C 
ATOM      2  N   UNL     1     106.029 141.272 160.224  0.00  0.00    +0.000 N 
ATOM      3  O   UNL     1     107.064 142.428 159.505  0.00  0.00    +0.000 OA
ENDROOT
BRANCH   1   4
ATOM      4  C   UNL     1     107.001 142.053 161.220  0.00  0.00    +0.000 A 
ATOM      5  C   UNL     1     106.760 142.902 161.693  0.00  0.00    +0.000 A 
ATOM      6  C   UNL     1     107.070 143.041 162.620  0.00  0.00    +0.000 A 
ATOM      7  C   UNL     1     107.542 141.352 161.662  0.00  0.00    +0.000 A 
ATOM      8  C   UNL     1     106.218 143.604 161.250  0.00  0.00    +0.000 A 
ATOM      9  C   UNL     1     107.852 141.490 162.590  0.00  0.00    +0.000 A 
ATOM     10  C   UNL     1     107.620 142.329 163.070  0.00  0.00    +0.000 A 
ATOM     11  C   UNL     1     106.837 143.881 163.100  0.00  0.00    +0.000 A 
ATOM     12  C   UNL     1     105.980 144.446 161.722  0.00  0.00    +0.000 A 
ATOM     13  C   UNL     1     106.291 144.585 162.650  0.00  0.00    +0.000 A 
ENDBRANCH   1   4
BRANCH   2  14
ATOM     14  C   UNL     1     105.731 141.139 159.332  0.00  0.00    +0.000 C 
BRANCH  14  15
ATOM     15  C   UNL     1     104.962 141.672 159.096  0.00  0.00    +0.000 C 
BRANCH  15  16
ATOM     16  N   UNL     1     104.540 141.542 158.209  0.00  0.00    +0.000 NA
BRANCH  16  17
ATOM     17  C   UNL     1     104.879 142.134 157.372  0.00  0.00    +0.000 C 
ATOM     18  C   UNL     1     104.715 143.073 157.322  0.00  0.00    +0.000 C 
ENDBRANCH  16  17
BRANCH  16  19
ATOM     19  C   UNL     1     103.880 140.950 158.052  0.00  0.00    +0.000 C 
ATOM     20  C   UNL     1     103.635 140.616 157.170  0.00  0.00    +0.000 C 
ENDBRANCH  16  19
ENDBRANCH  15  16
ENDBRANCH  14  15
ENDBRANCH   2  14
BRANCH   2  21
ATOM     21  C   UNL     1     105.607 140.743 160.830  0.00  0.00    +0.000 C 
BRANCH  21  22
ATOM     22  C   UNL     1     105.496 139.748 160.765  0.00  0.00    +0.000 C 
BRANCH  22  23
ATOM     23  C   UNL     1     105.221 139.271 161.569  0.00  0.00    +0.000 C 
ATOM     24  C   UNL     1     104.755 138.417 161.440  0.00  0.00    +0.000 C 
ENDBRANCH  22  23
ENDBRANCH  21  22
ENDBRANCH   2  21
TORSDOF 9
ENDMDL
MODEL 4
REMARK VINA RESULT:      -7.2      2.222      4.445
REMARK  Name = 
REMARK  9 active torsions:
REMARK  status: ('A' for Active; 'I' for Inactive)
REMARK    1  A    between atoms: C_1  and  C_2
REMARK    2  A    between atoms: N_4  and  C_6
REMARK    3  A    between atoms: N_4  and  C_13
REMARK    4  A    between atoms: C_6  and  C_9
REMARK    5  A    between atoms: N_8  and  C_9
REMARK    6  A    between atoms: N_8  and  C_15
REMARK    7  A    between atoms: N_8  and  C_16
REMARK    8  A    between atoms: C_13  and  C_18
REMARK    9  A    between atoms: C_18  and  C_19
REMARK                            x       y       z     vdW  Elec       q    Type
REMARK                         _______ _______ _______ _____ _____    ______ ____
ROOT
ATOM      1  C   UNL     1     105.019 143.100 158.694  0.00  0.00    +0.000 C 
ATOM      2  N   UNL     1     105.327 143.531 157.943  0.00  0.00    +0.000 N 
ATOM      3  O   UNL     1     104.317 142.379 158.703  0.00  0.00    +0.000 OA
ENDROOT
BRANCH   1   4
ATOM      4  C   UNL     1     105.461 143.426 159.529  0.00  0.00    +0.000 A 
ATOM      5  C   UNL     1     106.050 142.802 160.045  0.00  0.00    +0.000 A 
ATOM      6  C   UNL     1     106.487 143.124 160.870  0.00  0.00    +0.000 A 
ATOM      7  C   UNL     1     105.309 144.358 159.828  0.00  0.00    +0.000 A 
ATOM      8  C   UNL     1     106.203 141.869 159.745  0.00  0.00    +0.000 A 
ATOM      9  C   UNL     1     105.746 144.680 160.654  0.00  0.00    +0.000 A 
ATOM     10  C   UNL     1     106.332 144.070 161.174  0.00  0.00    +0.000 A 
ATOM     11  C   UNL     1     107.074 142.513 161.391  0.00  0.00    +0.000 A 
ATOM     12  C   UNL     1     106.788 141.252 160.260  0.00  0.00    +0.000 A 
ATOM     13  C   UNL     1     107.225 141.574 161.085  0.00  0.00    +0.000 A 
ENDBRANCH   1   4
BRANCH   2  14
ATOM     14  C   UNL     1     104.907 143.220 157.149  0.00  0.00    +0.000 C 
BRANCH  14  15
ATOM     15  C   UNL     1     105.467 142.647 156.612  0.00  0.00    +0.000 C 
BRANCH  15  16
ATOM     16  N   UNL     1     105.096 142.252 155.782  0.00  0.00    +0.000 NA
BRANCH  16  17
ATOM     17  C   UNL     1     104.938 141.185 155.730  0.00  0.00    +0.000 C 
ATOM     18  C   UNL     1     104.063 140.809 155.675  0.00  0.00    +0.000 C 
ENDBRANCH  16  17
BRANCH  16  19
ATOM     19  C   UNL     1     104.877 142.735 155.054  0.00  0.00    +0.000 C 
ATOM     20  C   UNL     1     105.469 142.895 154.298  0.00  0.00    +0.000 C 
ENDBRANCH  16  19
ENDBRANCH  15  16
ENDBRANCH  14  15
ENDBRANCH   2  14
BRANCH   2  21
ATOM     21  C   UNL     1     105.942 144.183 157.796  0.00  0.00    +0.000 C 
BRANCH  21  22
ATOM     22  C   UNL     1     105.796 145.016 157.256  0.00  0.00    +0.000 C 
BRANCH  22  23
ATOM     23  C   UNL     1     106.516 145.672 157.234  0.00  0.00    +0.000 C 
ATOM     24  C   UNL     1     106.576 146.237 156.433  0.00  0.00    +0.000 C 
ENDBRANCH  22  23
ENDBRANCH  21  22
ENDBRANCH   2  21
TORSDOF 9
ENDMDL
MODEL 5
REMARK VINA RESULT:      -7.1      1.558      5.137
REMARK  Name = 
REMARK  9 active torsions:
REMARK  status: ('A' for Active; 'I' for Inactive)
REMARK    1  A    between atoms: C_1  and  C_2
REMARK    2  A    between atoms: N_4  and  C_6
REMARK    3  A    between atoms: N_4  and  C_13
REMARK    4  A    between atoms: C_6  and  C_9
REMARK    5  A    between atoms: N_8  and  C_9
REMARK    6  A    between atoms: N_8  and  C_15
REMARK    7  A    between atoms: N_8  and  C_16
REMARK    8  A    between atoms: C_13  and  C_18
REMARK    9  A    between atoms: C_18  and  C_19
REMARK                            x       y       z     vdW  Elec       q    Type
REMARK                         _______ _______ _______ _____ _____    ______ ____
ROOT
ATOM      1  C   UNL     1     106.734 142.420 160.602  0.00  0.00    +0.000 C 
ATOM      2  N   UNL     1     106.506 143.002 161.277  0.00  0.00    +0.000 N 
ATOM      3  O   UNL     1     107.419 141.687 160.674  0.00  0.00    +0.000 OA
ENDROOT
BRANCH   1   4
ATOM      4  C   UNL     1     106.219 142.591 159.762  0.00  0.00    +0.000 A 
ATOM      5  C   UNL     1     105.489 141.958 159.500  0.00  0.00    +0.000 A 
ATOM      6  C   UNL     1     104.981 142.126 158.670  0.00  0.00    +0.000 A 
ATOM      7  C   UNL     1     106.441 143.381 159.207  0.00  0.00    +0.000 A 
ATOM      8  C   UNL     1     105.267 141.167 160.055  0.00  0.00    +0.000 A 
ATOM      9  C   UNL     1     105.933 143.550 158.377  0.00  0.00    +0.000 A 
ATOM     10  C   UNL     1     105.206 142.928 158.107  0.00  0.00    +0.000 A 
ATOM     11  C   UNL     1     104.254 141.504 158.400  0.00  0.00    +0.000 A 
ATOM     12  C   UNL     1     104.542 140.540 159.792  0.00  0.00    +0.000 A 
ATOM     13  C   UNL     1     104.033 140.709 158.962  0.00  0.00    +0.000 A 
ENDBRANCH   1   4
BRANCH   2  14
ATOM     14  C   UNL     1     106.994 142.839 162.075  0.00  0.00    +0.000 C 
BRANCH  14  15
ATOM     15  C   UNL     1     106.473 142.423 162.772  0.00  0.00    +0.000 C 
BRANCH  15  16
ATOM     16  N   UNL     1     106.927 142.127 163.601  0.00  0.00    +0.000 NA
BRANCH  16  17
ATOM     17  C   UNL     1     107.217 141.091 163.702  0.00  0.00    +0.000 C 
ATOM     18  C   UNL     1     106.571 140.395 163.790  0.00  0.00    +0.000 C 
ENDBRANCH  16  17
BRANCH  16  19
ATOM     19  C   UNL     1     107.118 142.675 164.290  0.00  0.00    +0.000 C 
ATOM     20  C   UNL     1     106.475 142.961 164.963  0.00  0.00    +0.000 C 
ENDBRANCH  16  19
ENDBRANCH  15  16
ENDBRANCH  14  15
ENDBRANCH   2  14
BRANCH   2  21
ATOM     21  C   UNL     1     105.919 143.692 161.345  0.00  0.00    +0.000 C 
BRANCH  21  22
ATOM     22  C   UNL     1     106.143 144.626 161.638  0.00  0.00    +0.000 C 
BRANCH  22  23
ATOM     23  C   UNL     1     105.406 145.254 161.744  0.00  0.00    +0.000 C 
ATOM     24  C   UNL     1     105.422 146.055 161.178  0.00  0.00    +0.000 C 
ENDBRANCH  22  23
ENDBRANCH  21  22
ENDBRANCH   2  21
TORSDOF 9
ENDMDL
MODEL 6
REMARK VINA RESULT:      -7.0      2.942      6.367
REMARK  Name = 
REMARK  9 active torsions:
REMARK  status: ('A' for Active; 'I' for Inactive)
REMARK    1  A    between atoms: C_1  and  C_2
REMARK    2  A    between atoms: N_4  and  C_6
REMARK    3  A    between atoms: N_4  and  C_13
REMARK    4  A    between atoms: C_6  and  C_9
REMARK    5  A    between atoms: N_8  and  C_9
REMARK    6  A    between atoms: N_8  and  C_15
REMARK    7  A    between atoms: N_8  and  C_16
REMARK    8  A    between atoms: C_13  and  C_18
REMARK    9  A    between atoms: C_18  and  C_19
REMARK                            x       y       z     vdW  Elec       q    Type
REMARK                         _______ _______ _______ _____ _____    ______ ____
ROOT
ATOM      1  C   UNL     1     104.478 143.726 157.060  0.00  0.00    +0.000 C 
ATOM      2  N   UNL     1     105.085 143.839 157.741  0.00  0.00    +0.000 N 
ATOM      3  O   UNL     1     103.884 144.446 156.685  0.00  0.00    +0.000 OA
ENDROOT
BRANCH   1   4
ATOM      4  C   UNL     1     104.464 142.788 156.714  0.00  0.00    +0.000 A 
ATOM      5  C   UNL     1     104.880 142.590 155.825  0.00  0.00    +0.000 A 
ATOM      6  C   UNL     1     104.866 141.663 155.484  0.00  0.00    +0.000 A 
ATOM      7  C   UNL     1     104.041 142.076 157.257  0.00  0.00    +0.000 A 
ATOM      8  C   UNL     1     105.304 143.302 155.282  0.00  0.00    +0.000 A 
ATOM      9  C   UNL     1     104.027 141.149 156.915  0.00  0.00    +0.000 A 
ATOM     10  C   UNL     1     104.437 140.939 156.034  0.00  0.00    +0.000 A 
ATOM     11  C   UNL     1     105.276 141.454 154.602  0.00  0.00    +0.000 A 
ATOM     12  C   UNL     1     105.716 143.102 154.400  0.00  0.00    +0.000 A 
ATOM     13  C   UNL     1     105.702 142.175 154.059  0.00  0.00    +0.000 A 
ENDBRANCH   1   4
BRANCH   2  14
ATOM     14  C   UNL     1     105.098 144.731 158.069  0.00  0.00    +0.000 C 
BRANCH  14  15
ATOM     15  C   UNL     1     105.902 145.215 157.845  0.00  0.00    +0.000 C 
BRANCH  15  16
ATOM     16  N   UNL     1     105.953 146.184 158.048  0.00  0.00    +0.000 NA
BRANCH  16  17
ATOM     17  C   UNL     1     106.308 146.864 157.288  0.00  0.00    +0.000 C 
ATOM     18  C   UNL     1     107.029 146.634 156.706  0.00  0.00    +0.000 C 
ENDBRANCH  16  17
BRANCH  16  19
ATOM     19  C   UNL     1     105.717 146.542 158.840  0.00  0.00    +0.000 C 
ATOM     20  C   UNL     1     105.665 147.497 159.022  0.00  0.00    +0.000 C 
ENDBRANCH  16  19
ENDBRANCH  15  16
ENDBRANCH  14  15
ENDBRANCH   2  14
BRANCH   2  21
ATOM     21  C   UNL     1     105.670 143.289 158.165  0.00  0.00    +0.000 C 
BRANCH  21  22
ATOM     22  C   UNL     1     105.773 143.195 159.159  0.00  0.00    +0.000 C 
BRANCH  22  23
ATOM     23  C   UNL     1     106.425 142.549 159.487  0.00  0.00    +0.000 C 
ATOM     24  C   UNL     1     106.391 142.331 160.443  0.00  0.00    +0.000 C 
ENDBRANCH  22  23
ENDBRANCH  21  22
ENDBRANCH   2  21
TORSDOF 9
ENDMDL
MODEL 7
REMARK VINA RESULT:      -6.8      4.523      7.019
REMARK  Name = 
REMARK  9 active torsions:
REMARK  status: ('A' for Active; 'I' for Inactive)
REMARK    1  A    between atoms: C_1  and  C_2
REMARK    2  A    between atoms: N_4  and  C_6
REMARK    3  A    between atoms: N_4  and  C_13
REMARK    4  A    between atoms: C_6  and  C_9
REMARK    5  A    between atoms: N_8  and  C_9
REMARK    6  A    between atoms: N_8  and  C_15
REMARK    7  A    between atoms: N_8  and  C_16
REMARK    8  A    between atoms: C_13  and  C_18
REMARK    9  A    between atoms: C_18  and  C_19
REMARK                            x       y       z     vdW  Elec       q    Type
REMARK                         _______ _______ _______ _____ _____    ______ ____
ROOT
ATOM      1  C   UNL     1     105.176 143.542 156.892  0.00  0.00    +0.000 C 
ATOM      2  N   UNL     1     104.741 144.352 156.880  0.00  0.00    +0.000 N 
ATOM      3  O   UNL     1     105.627 143.137 157.695  0.00  0.00    +0.000 OA
ENDROOT
BRANCH   1   4
ATOM      4  C   UNL     1     105.159 143.087 156.002  0.00  0.00    +0.000 A 
ATOM      5  C   UNL     1     104.677 142.214 155.911  0.00  0.00    +0.000 A 
ATOM      6  C   UNL     1     104.660 141.764 155.032  0.00  0.00    +0.000 A 
ATOM      7  C   UNL     1     105.618 143.506 155.232  0.00  0.00    +0.000 A 
ATOM      8  C   UNL     1     104.218 141.793 156.682  0.00  0.00    +0.000 A 
ATOM      9  C   UNL     1     105.601 143.056 154.352  0.00  0.00    +0.000 A 
ATOM     10  C   UNL     1     105.126 142.189 154.249  0.00  0.00    +0.000 A 
ATOM     11  C   UNL     1     104.185 140.896 154.929  0.00  0.00    +0.000 A 
ATOM     12  C   UNL     1     103.741 140.926 156.588  0.00  0.00    +0.000 A 
ATOM     13  C   UNL     1     103.724 140.476 155.709  0.00  0.00    +0.000 A 
ENDBRANCH   1   4
BRANCH   2  14
ATOM     14  C   UNL     1     104.757 144.785 157.725  0.00  0.00    +0.000 C 
BRANCH  14  15
ATOM     15  C   UNL     1     105.509 145.377 157.843  0.00  0.00    +0.000 C 
BRANCH  15  16
ATOM     16  N   UNL     1     105.522 145.988 158.623  0.00  0.00    +0.000 NA
BRANCH  16  17
ATOM     17  C   UNL     1     105.863 147.005 158.492  0.00  0.00    +0.000 C 
ATOM     18  C   UNL     1     106.518 147.234 157.837  0.00  0.00    +0.000 C 
ENDBRANCH  16  17
BRANCH  16  19
ATOM     19  C   UNL     1     105.263 145.747 159.452  0.00  0.00    +0.000 C 
ATOM     20  C   UNL     1     105.671 146.071 160.275  0.00  0.00    +0.000 C 
ENDBRANCH  16  19
ENDBRANCH  15  16
ENDBRANCH  14  15
ENDBRANCH   2  14
BRANCH   2  21
ATOM     21  C   UNL     1     104.302 144.824 156.240  0.00  0.00    +0.000 C 
BRANCH  21  22
ATOM     22  C   UNL     1     103.402 145.256 156.341  0.00  0.00    +0.000 C 
BRANCH  22  23
ATOM     23  C   UNL     1     103.040 145.732 155.572  0.00  0.00    +0.000 C 
ATOM     24  C   UNL     1     102.453 146.495 155.759  0.00  0.00    +0.000 C 
ENDBRANCH  22  23
ENDBRANCH  21  22
ENDBRANCH   2  21
TORSDOF 9
ENDMDL
MODEL 8
REMARK VINA RESULT:      -6.8     56.565     58.070
REMARK  Name = 
REMARK  9 active torsions:
REMARK  status: ('A' for Active; 'I' for Inactive)
REMARK    1  A    between atoms: C_1  and  C_2
REMARK    2  A    between atoms: N_4  and  C_6
REMARK    3  A    between atoms: N_4  and  C_13
REMARK    4  A    between atoms: C_6  and  C_9
REMARK    5  A    between atoms: N_8  and  C_9
REMARK    6  A    between atoms: N_8  and  C_15
REMARK    7  A    between atoms: N_8  and  C_16
REMARK    8  A    between atoms: C_13  and  C_18
REMARK    9  A    between atoms: C_18  and  C_19
REMARK                            x       y       z     vdW  Elec       q    Type
REMARK                         _______ _______ _______ _____ _____    ______ ____
ROOT
ATOM      1  C   UNL     1     144.086 119.796 122.572  0.00  0.00    +0.000 C 
ATOM      2  N   UNL     1     143.168 119.832 122.582  0.00  0.00    +0.000 N 
ATOM      3  O   UNL     1     144.642 119.324 121.879  0.00  0.00    +0.000 OA
ENDROOT
BRANCH   1   4
ATOM      4  C   UNL     1     144.495 120.286 123.342  0.00  0.00    +0.000 A 
ATOM      5  C   UNL     1     144.922 119.763 124.082  0.00  0.00    +0.000 A 
ATOM      6  C   UNL     1     145.326 120.247 124.842  0.00  0.00    +0.000 A 
ATOM      7  C   UNL     1     144.470 121.276 123.358  0.00  0.00    +0.000 A 
ATOM      8  C   UNL     1     144.947 118.772 124.066  0.00  0.00    +0.000 A 
ATOM      9  C   UNL     1     144.874 121.760 124.119  0.00  0.00    +0.000 A 
ATOM     10  C   UNL     1     145.300 121.252 124.859  0.00  0.00    +0.000 A 
ATOM     11  C   UNL     1     145.752 119.738 125.583  0.00  0.00    +0.000 A 
ATOM     12  C   UNL     1     145.372 118.256 124.803  0.00  0.00    +0.000 A 
ATOM     13  C   UNL     1     145.775 118.740 125.563  0.00  0.00    +0.000 A 
ENDBRANCH   1   4
BRANCH   2  14
ATOM     14  C   UNL     1     142.780 119.366 121.851  0.00  0.00    +0.000 C 
BRANCH  14  15
ATOM     15  C   UNL     1     142.392 119.945 121.185  0.00  0.00    +0.000 C 
BRANCH  15  16
ATOM     16  N   UNL     1     142.152 119.568 120.300  0.00  0.00    +0.000 NA
BRANCH  16  17
ATOM     17  C   UNL     1     141.873 118.527 120.229  0.00  0.00    +0.000 C 
ATOM     18  C   UNL     1     141.342 118.198 119.507  0.00  0.00    +0.000 C 
ENDBRANCH  16  17
BRANCH  16  19
ATOM     19  C   UNL     1     142.151 120.045 119.536  0.00  0.00    +0.000 C 
ATOM     20  C   UNL     1     142.262 121.012 119.489  0.00  0.00    +0.000 C 
ENDBRANCH  16  19
ENDBRANCH  15  16
ENDBRANCH  14  15
ENDBRANCH   2  14
BRANCH   2  21
ATOM     21  C   UNL     1     142.556 120.213 123.135  0.00  0.00    +0.000 C 
BRANCH  21  22
ATOM     22  C   UNL     1     141.790 119.740 123.578  0.00  0.00    +0.000 C 
BRANCH  22  23
ATOM     23  C   UNL     1     141.288 120.229 124.256  0.00  0.00    +0.000 C 
ATOM     24  C   UNL     1     141.269 119.843 125.158  0.00  0.00    +0.000 C 
ENDBRANCH  22  23
ENDBRANCH  21  22
ENDBRANCH   2  21
TORSDOF 9
ENDMDL
MODEL 9
REMARK VINA RESULT:      -6.7      2.605      6.910
REMARK  Name = 
REMARK  9 active torsions:
REMARK  status: ('A' for Active; 'I' for Inactive)
REMARK    1  A    between atoms: C_1  and  C_2
REMARK    2  A    between atoms: N_4  and  C_6
REMARK    3  A    between atoms: N_4  and  C_13
REMARK    4  A    between atoms: C_6  and  C_9
REMARK    5  A    between atoms: N_8  and  C_9
REMARK    6  A    between atoms: N_8  and  C_15
REMARK    7  A    between atoms: N_8  and  C_16
REMARK    8  A    between atoms: C_13  and  C_18
REMARK    9  A    between atoms: C_18  and  C_19
REMARK                            x       y       z     vdW  Elec       q    Type
REMARK                         _______ _______ _______ _____ _____    ______ ____
ROOT
ATOM      1  C   UNL     1     104.495 143.053 157.202  0.00  0.00    +0.000 C 
ATOM      2  N   UNL     1     105.158 143.589 157.546  0.00  0.00    +0.000 N 
ATOM      3  O   UNL     1     103.922 142.422 157.736  0.00  0.00    +0.000 OA
ENDROOT
BRANCH   1   4
ATOM      4  C   UNL     1     104.393 143.161 156.213  0.00  0.00    +0.000 A 
ATOM      5  C   UNL     1     104.658 142.406 155.611  0.00  0.00    +0.000 A 
ATOM      6  C   UNL     1     104.558 142.513 154.634  0.00  0.00    +0.000 A 
ATOM      7  C   UNL     1     104.034 144.009 155.850  0.00  0.00    +0.000 A 
ATOM      8  C   UNL     1     105.018 141.557 155.974  0.00  0.00    +0.000 A 
ATOM      9  C   UNL     1     103.934 144.116 154.873  0.00  0.00    +0.000 A 
ATOM     10  C   UNL     1     104.193 143.374 154.265  0.00  0.00    +0.000 A 
ATOM     11  C   UNL     1     104.818 141.770 154.025  0.00  0.00    +0.000 A 
ATOM     12  C   UNL     1     105.280 140.809 155.372  0.00  0.00    +0.000 A 
ATOM     13  C   UNL     1     105.180 140.916 154.395  0.00  0.00    +0.000 A 
ENDBRANCH   1   4
BRANCH   2  14
ATOM     14  C   UNL     1     105.254 143.486 158.486  0.00  0.00    +0.000 C 
BRANCH  14  15
ATOM     15  C   UNL     1     106.041 142.990 158.743  0.00  0.00    +0.000 C 
BRANCH  15  16
ATOM     16  N   UNL     1     106.196 142.800 159.703  0.00  0.00    +0.000 NA
BRANCH  16  17
ATOM     17  C   UNL     1     105.812 143.483 160.446  0.00  0.00    +0.000 C 
ATOM     18  C   UNL     1     106.373 143.860 161.120  0.00  0.00    +0.000 C 
ENDBRANCH  16  17
BRANCH  16  19
ATOM     19  C   UNL     1     106.646 142.079 160.003  0.00  0.00    +0.000 C 
ATOM     20  C   UNL     1     106.379 141.156 159.847  0.00  0.00    +0.000 C 
ENDBRANCH  16  19
ENDBRANCH  15  16
ENDBRANCH  14  15
ENDBRANCH   2  14
BRANCH   2  21
ATOM     21  C   UNL     1     105.736 144.190 157.186  0.00  0.00    +0.000 C 
BRANCH  21  22
ATOM     22  C   UNL     1     105.908 145.117 157.529  0.00  0.00    +0.000 C 
BRANCH  22  23
ATOM     23  C   UNL     1     106.526 145.678 157.025  0.00  0.00    +0.000 C 
ATOM     24  C   UNL     1     106.514 146.638 157.224  0.00  0.00    +0.000 C 
ENDBRANCH  22  23
ENDBRANCH  21  22
ENDBRANCH   2  21
TORSDOF 9
ENDMDL
MODEL 10
REMARK VINA RESULT:      -6.6     56.892     59.103
REMARK  Name = 
REMARK  9 active torsions:
REMARK  status: ('A' for Active; 'I' for Inactive)
REMARK    1  A    between atoms: C_1  and  C_2
REMARK    2  A    between atoms: N_4  and  C_6
REMARK    3  A    between atoms: N_4  and  C_13
REMARK    4  A    between atoms: C_6  and  C_9
REMARK    5  A    between atoms: N_8  and  C_9
REMARK    6  A    between atoms: N_8  and  C_15
REMARK    7  A    between atoms: N_8  and  C_16
REMARK    8  A    between atoms: C_13  and  C_18
REMARK    9  A    between atoms: C_18  and  C_19
REMARK                            x       y       z     vdW  Elec       q    Type
REMARK                         _______ _______ _______ _____ _____    ______ ____
ROOT
ATOM      1  C   UNL     1      94.018 138.111 104.066  0.00  0.00    +0.000 C 
ATOM      2  N   UNL     1      93.298 137.564 103.904  0.00  0.00    +0.000 N 
ATOM      3  O   UNL     1      94.196 138.989 103.608  0.00  0.00    +0.000 OA
ENDROOT
BRANCH   1   4
ATOM      4  C   UNL     1      94.630 137.738 104.763  0.00  0.00    +0.000 A 
ATOM      5  C   UNL     1      95.537 137.410 104.491  0.00  0.00    +0.000 A 
ATOM      6  C   UNL     1      96.141 137.042 105.180  0.00  0.00    +0.000 A 
ATOM      7  C   UNL     1      94.329 137.701 105.706  0.00  0.00    +0.000 A 
ATOM      8  C   UNL     1      95.839 137.448 103.548  0.00  0.00    +0.000 A 
ATOM      9  C   UNL     1      94.934 137.332 106.395  0.00  0.00    +0.000 A 
ATOM     10  C   UNL     1      95.836 137.004 106.137  0.00  0.00    +0.000 A 
ATOM     11  C   UNL     1      97.044 136.713 104.922  0.00  0.00    +0.000 A 
ATOM     12  C   UNL     1      96.739 137.121 103.281  0.00  0.00    +0.000 A 
ATOM     13  C   UNL     1      97.344 136.753 103.970  0.00  0.00    +0.000 A 
ENDBRANCH   1   4
BRANCH   2  14
ATOM     14  C   UNL     1      92.716 137.918 103.242  0.00  0.00    +0.000 C 
BRANCH  14  15
ATOM     15  C   UNL     1      91.960 138.395 103.604  0.00  0.00    +0.000 C 
BRANCH  15  16
ATOM     16  N   UNL     1      91.237 138.686 102.992  0.00  0.00    +0.000 NA
BRANCH  16  17
ATOM     17  C   UNL     1      90.243 138.840 103.385  0.00  0.00    +0.000 C 
ATOM     18  C   UNL     1      89.699 138.111 103.674  0.00  0.00    +0.000 C 
ENDBRANCH  16  17
BRANCH  16  19
ATOM     19  C   UNL     1      91.356 138.833 102.111  0.00  0.00    +0.000 C 
ATOM     20  C   UNL     1      91.098 139.650 101.647  0.00  0.00    +0.000 C 
ENDBRANCH  16  19
ENDBRANCH  15  16
ENDBRANCH  14  15
ENDBRANCH   2  14
BRANCH   2  21
ATOM     21  C   UNL     1      93.023 136.765 104.238  0.00  0.00    +0.000 C 
BRANCH  21  22
ATOM     22  C   UNL     1      92.736 135.970 103.696  0.00  0.00    +0.000 C 
BRANCH  22  23
ATOM     23  C   UNL     1      92.543 135.144 104.175  0.00  0.00    +0.000 C 
ATOM     24  C   UNL     1      91.813 134.589 103.826  0.00  0.00    +0.000 C 
ENDBRANCH  22  23
ENDBRANCH  21  22
ENDBRANCH   2  21
TORSDOF 9
ENDMDL
MODEL 11
REMARK VINA RESULT:      -6.6     55.445     56.947
REMARK  Name = 
REMARK  9 active torsions:
REMARK  status: ('A' for Active; 'I' for Inactive)
REMARK    1  A    between atoms: C_1  and  C_2
REMARK    2  A    between atoms: N_4  and  C_6
REMARK    3  A    between atoms: N_4  and  C_13
REMARK    4  A    between atoms: C_6  and  C_9
REMARK    5  A    between atoms: N_8  and  C_9
REMARK    6  A    between atoms: N_8  and  C_15
REMARK    7  A    between atoms: N_8  and  C_16
REMARK    8  A    between atoms: C_13  and  C_18
REMARK    9  A    between atoms: C_18  and  C_19
REMARK                            x       y       z     vdW  Elec       q    Type
REMARK                         _______ _______ _______ _____ _____    ______ ____
ROOT
ATOM      1  C   UNL     1     144.968 119.568 125.761  0.00  0.00    +0.000 C 
ATOM      2  N   UNL     1     144.298 119.295 126.327  0.00  0.00    +0.000 N 
ATOM      3  O   UNL     1     145.903 119.196 125.745  0.00  0.00    +0.000 OA
ENDROOT
BRANCH   1   4
ATOM      4  C   UNL     1     144.671 120.294 125.141  0.00  0.00    +0.000 A 
ATOM      5  C   UNL     1     144.515 120.078 124.176  0.00  0.00    +0.000 A 
ATOM      6  C   UNL     1     144.222 120.795 123.563  0.00  0.00    +0.000 A 
ATOM      7  C   UNL     1     144.537 121.210 125.493  0.00  0.00    +0.000 A 
ATOM      8  C   UNL     1     144.650 119.161 123.823  0.00  0.00    +0.000 A 
ATOM      9  C   UNL     1     144.243 121.928 124.880  0.00  0.00    +0.000 A 
ATOM     10  C   UNL     1     144.085 121.725 123.920  0.00  0.00    +0.000 A 
ATOM     11  C   UNL     1     144.064 120.592 122.602  0.00  0.00    +0.000 A 
ATOM     12  C   UNL     1     144.494 118.950 122.864  0.00  0.00    +0.000 A 
ATOM     13  C   UNL     1     144.201 119.667 122.252  0.00  0.00    +0.000 A 
ENDBRANCH   1   4
BRANCH   2  14
ATOM     14  C   UNL     1     144.580 118.605 126.916  0.00  0.00    +0.000 C 
BRANCH  14  15
ATOM     15  C   UNL     1     144.771 118.912 127.810  0.00  0.00    +0.000 C 
BRANCH  15  16
ATOM     16  N   UNL     1     145.040 118.251 128.498  0.00  0.00    +0.000 NA
BRANCH  16  17
ATOM     17  C   UNL     1     145.235 118.588 129.505  0.00  0.00    +0.000 C 
ATOM     18  C   UNL     1     144.750 119.311 129.896  0.00  0.00    +0.000 C 
ENDBRANCH  16  17
BRANCH  16  19
ATOM     19  C   UNL     1     145.133 117.370 128.336  0.00  0.00    +0.000 C 
ATOM     20  C   UNL     1     145.859 116.818 128.679  0.00  0.00    +0.000 C 
ENDBRANCH  16  19
ENDBRANCH  15  16
ENDBRANCH  14  15
ENDBRANCH   2  14
BRANCH   2  21
ATOM     21  C   UNL     1     143.431 119.539 126.445  0.00  0.00    +0.000 C 
BRANCH  21  22
ATOM     22  C   UNL     1     142.638 118.926 126.411  0.00  0.00    +0.000 C 
BRANCH  22  23
ATOM     23  C   UNL     1     141.752 119.329 126.467  0.00  0.00    +0.000 C 
ATOM     24  C   UNL     1     141.166 119.220 125.688  0.00  0.00    +0.000 C 
ENDBRANCH  22  23
ENDBRANCH  21  22
ENDBRANCH   2  21
TORSDOF 9
ENDMDL
MODEL 12
REMARK VINA RESULT:      -6.6     32.657     35.001
REMARK  Name = 
REMARK  9 active torsions:
REMARK  status: ('A' for Active; 'I' for Inactive)
REMARK    1  A    between atoms: C_1  and  C_2
REMARK    2  A    between atoms: N_4  and  C_6
REMARK    3  A    between atoms: N_4  and  C_13
REMARK    4  A    between atoms: C_6  and  C_9
REMARK    5  A    between atoms: N_8  and  C_9
REMARK    6  A    between atoms: N_8  and  C_15
REMARK    7  A    between atoms: N_8  and  C_16
REMARK    8  A    between atoms: C_13  and  C_18
REMARK    9  A    between atoms: C_18  and  C_19
REMARK                            x       y       z     vdW  Elec       q    Type
REMARK                         _______ _______ _______ _____ _____    ______ ____
ROOT
ATOM      1  C   UNL     1     118.035 128.881 130.979  0.00  0.00    +0.000 C 
ATOM      2  N   UNL     1     118.500 129.314 131.643  0.00  0.00    +0.000 N 
ATOM      3  O   UNL     1     118.358 128.747 130.035  0.00  0.00    +0.000 OA
ENDROOT
BRANCH   1   4
ATOM      4  C   UNL     1     117.147 128.544 131.293  0.00  0.00    +0.000 A 
ATOM      5  C   UNL     1     116.980 127.557 131.313  0.00  0.00    +0.000 A 
ATOM      6  C   UNL     1     116.103 127.224 131.623  0.00  0.00    +0.000 A 
ATOM      7  C   UNL     1     116.453 129.191 131.577  0.00  0.00    +0.000 A 
ATOM      8  C   UNL     1     117.674 126.909 131.029  0.00  0.00    +0.000 A 
ATOM      9  C   UNL     1     115.576 128.858 131.887  0.00  0.00    +0.000 A 
ATOM     10  C   UNL     1     115.398 127.880 131.911  0.00  0.00    +0.000 A 
ATOM     11  C   UNL     1     115.925 126.245 131.647  0.00  0.00    +0.000 A 
ATOM     12  C   UNL     1     117.504 125.929 131.050  0.00  0.00    +0.000 A 
ATOM     13  C   UNL     1     116.627 125.596 131.360  0.00  0.00    +0.000 A 
ENDBRANCH   1   4
BRANCH   2  14
ATOM     14  C   UNL     1     119.343 129.634 131.344  0.00  0.00    +0.000 C 
BRANCH  14  15
ATOM     15  C   UNL     1     119.330 130.555 131.060  0.00  0.00    +0.000 C 
BRANCH  15  16
ATOM     16  N   UNL     1     120.182 130.993 130.806  0.00  0.00    +0.000 NA
BRANCH  16  17
ATOM     17  C   UNL     1     121.095 130.416 130.816  0.00  0.00    +0.000 C 
ATOM     18  C   UNL     1     121.952 130.832 130.861  0.00  0.00    +0.000 C 
ENDBRANCH  16  17
BRANCH  16  19
ATOM     19  C   UNL     1     120.247 131.858 130.564  0.00  0.00    +0.000 C 
ATOM     20  C   UNL     1     119.553 132.354 130.094  0.00  0.00    +0.000 C 
ENDBRANCH  16  19
ENDBRANCH  15  16
ENDBRANCH  14  15
ENDBRANCH   2  14
BRANCH   2  21
ATOM     21  C   UNL     1     118.330 129.501 132.515  0.00  0.00    +0.000 C 
BRANCH  21  22
ATOM     22  C   UNL     1     118.961 129.355 133.281  0.00  0.00    +0.000 C 
BRANCH  22  23
ATOM     23  C   UNL     1     118.731 129.756 134.139  0.00  0.00    +0.000 C 
ATOM     24  C   UNL     1     119.418 129.728 134.839  0.00  0.00    +0.000 C 
ENDBRANCH  22  23
ENDBRANCH  21  22
ENDBRANCH   2  21
TORSDOF 9
ENDMDL
MODEL 13
REMARK VINA RESULT:      -6.6     53.312     55.196
REMARK  Name = 
REMARK  9 active torsions:
REMARK  status: ('A' for Active; 'I' for Inactive)
REMARK    1  A    between atoms: C_1  and  C_2
REMARK    2  A    between atoms: N_4  and  C_6
REMARK    3  A    between atoms: N_4  and  C_13
REMARK    4  A    between atoms: C_6  and  C_9
REMARK    5  A    between atoms: N_8  and  C_9
REMARK    6  A    between atoms: N_8  and  C_15
REMARK    7  A    between atoms: N_8  and  C_16
REMARK    8  A    between atoms: C_13  and  C_18
REMARK    9  A    between atoms: C_18  and  C_19
REMARK                            x       y       z     vdW  Elec       q    Type
REMARK                         _______ _______ _______ _____ _____    ______ ____
ROOT
ATOM      1  C   UNL     1     159.978 132.493 155.561  0.00  0.00    +0.000 C 
ATOM      2  N   UNL     1     160.835 132.754 155.767  0.00  0.00    +0.000 N 
ATOM      3  O   UNL     1     159.711 131.581 155.231  0.00  0.00    +0.000 OA
ENDROOT
BRANCH   1   4
ATOM      4  C   UNL     1     159.313 133.227 155.701  0.00  0.00    +0.000 A 
ATOM      5  C   UNL     1     158.645 133.144 156.442  0.00  0.00    +0.000 A 
ATOM      6  C   UNL     1     157.988 133.869 156.580  0.00  0.00    +0.000 A 
ATOM      7  C   UNL     1     159.328 134.018 155.106  0.00  0.00    +0.000 A 
ATOM      8  C   UNL     1     158.629 132.353 157.038  0.00  0.00    +0.000 A 
ATOM      9  C   UNL     1     158.671 134.743 155.243  0.00  0.00    +0.000 A 
ATOM     10  C   UNL     1     158.003 134.673 155.976  0.00  0.00    +0.000 A 
ATOM     11  C   UNL     1     157.319 133.798 157.313  0.00  0.00    +0.000 A 
ATOM     12  C   UNL     1     157.964 132.274 157.773  0.00  0.00    +0.000 A 
ATOM     13  C   UNL     1     157.307 132.999 157.911  0.00  0.00    +0.000 A 
ENDBRANCH   1   4
BRANCH   2  14
ATOM     14  C   UNL     1     161.467 132.057 155.635  0.00  0.00    +0.000 C 
BRANCH  14  15
ATOM     15  C   UNL     1     162.005 132.167 154.842  0.00  0.00    +0.000 C 
BRANCH  15  16
ATOM     16  N   UNL     1     162.629 131.443 154.580  0.00  0.00    +0.000 NA
BRANCH  16  17
ATOM     17  C   UNL     1     163.142 130.884 155.349  0.00  0.00    +0.000 C 
ATOM     18  C   UNL     1     163.597 130.068 155.158  0.00  0.00    +0.000 C 
ENDBRANCH  16  17
BRANCH  16  19
ATOM     19  C   UNL     1     162.801 131.216 153.726  0.00  0.00    +0.000 C 
ATOM     20  C   UNL     1     162.797 131.838 152.977  0.00  0.00    +0.000 C 
ENDBRANCH  16  19
ENDBRANCH  15  16
ENDBRANCH  14  15
ENDBRANCH   2  14
BRANCH   2  21
ATOM     21  C   UNL     1     161.206 133.527 156.068  0.00  0.00    +0.000 C 
BRANCH  21  22
ATOM     22  C   UNL     1     161.753 133.630 156.903  0.00  0.00    +0.000 C 
BRANCH  22  23
ATOM     23  C   UNL     1     162.169 134.496 157.066  0.00  0.00    +0.000 C 
ATOM     24  C   UNL     1     161.858 134.996 157.851  0.00  0.00    +0.000 C 
ENDBRANCH  22  23
ENDBRANCH  21  22
ENDBRANCH   2  21
TORSDOF 9
ENDMDL
MODEL 14
REMARK VINA RESULT:      -6.6     58.525     60.056
REMARK  Name = 
REMARK  9 active torsions:
REMARK  status: ('A' for Active; 'I' for Inactive)
REMARK    1  A    between atoms: C_1  and  C_2
REMARK    2  A    between atoms: N_4  and  C_6
REMARK    3  A    between atoms: N_4  and  C_13
REMARK    4  A    between atoms: C_6  and  C_9
REMARK    5  A    between atoms: N_8  and  C_9
REMARK    6  A    between atoms: N_8  and  C_15
REMARK    7  A    between atoms: N_8  and  C_16
REMARK    8  A    between atoms: C_13  and  C_18
REMARK    9  A    between atoms: C_18  and  C_19
REMARK                            x       y       z     vdW  Elec       q    Type
REMARK                         _______ _______ _______ _____ _____    ______ ____
ROOT
ATOM      1  C   UNL     1     162.674 133.742 143.889  0.00  0.00    +0.000 C 
ATOM      2  N   UNL     1     163.076 133.909 143.079  0.00  0.00    +0.000 N 
ATOM      3  O   UNL     1     162.576 132.835 144.313  0.00  0.00    +0.000 OA
ENDROOT
BRANCH   1   4
ATOM      4  C   UNL     1     162.331 134.575 144.323  0.00  0.00    +0.000 A 
ATOM      5  C   UNL     1     162.806 134.936 145.127  0.00  0.00    +0.000 A 
ATOM      6  C   UNL     1     162.468 135.760 145.555  0.00  0.00    +0.000 A 
ATOM      7  C   UNL     1     161.532 135.025 143.950  0.00  0.00    +0.000 A 
ATOM      8  C   UNL     1     163.607 134.487 145.500  0.00  0.00    +0.000 A 
ATOM      9  C   UNL     1     161.193 135.848 144.379  0.00  0.00    +0.000 A 
ATOM     10  C   UNL     1     161.656 136.217 145.178  0.00  0.00    +0.000 A 
ATOM     11  C   UNL     1     162.932 136.128 146.355  0.00  0.00    +0.000 A 
ATOM     12  C   UNL     1     164.076 134.848 146.299  0.00  0.00    +0.000 A 
ATOM     13  C   UNL     1     163.737 135.671 146.727  0.00  0.00    +0.000 A 
ENDBRANCH   1   4
BRANCH   2  14
ATOM     14  C   UNL     1     163.402 133.117 142.667  0.00  0.00    +0.000 C 
BRANCH  14  15
ATOM     15  C   UNL     1     162.915 132.865 141.874  0.00  0.00    +0.000 C 
BRANCH  15  16
ATOM     16  N   UNL     1     163.109 131.991 141.448  0.00  0.00    +0.000 NA
BRANCH  16  17
ATOM     17  C   UNL     1     164.127 131.631 141.420  0.00  0.00    +0.000 C 
ATOM     18  C   UNL     1     164.350 130.784 141.043  0.00  0.00    +0.000 C 
ENDBRANCH  16  17
BRANCH  16  19
ATOM     19  C   UNL     1     162.478 131.466 141.076  0.00  0.00    +0.000 C 
ATOM     20  C   UNL     1     161.742 131.790 140.528  0.00  0.00    +0.000 C 
ENDBRANCH  16  19
ENDBRANCH  15  16
ENDBRANCH  14  15
ENDBRANCH   2  14
BRANCH   2  21
ATOM     21  C   UNL     1     163.229 134.660 142.592  0.00  0.00    +0.000 C 
BRANCH  21  22
ATOM     22  C   UNL     1     164.125 134.982 142.274  0.00  0.00    +0.000 C 
BRANCH  22  23
ATOM     23  C   UNL     1     164.172 135.874 141.886  0.00  0.00    +0.000 C 
ATOM     24  C   UNL     1     164.829 136.491 142.273  0.00  0.00    +0.000 C 
ENDBRANCH  22  23
ENDBRANCH  21  22
ENDBRANCH   2  21
TORSDOF 9
ENDMDL
MODEL 15
REMARK VINA RESULT:      -6.5     58.620     60.124
REMARK  Name = 
REMARK  9 active torsions:
REMARK  status: ('A' for Active; 'I' for Inactive)
REMARK    1  A    between atoms: C_1  and  C_2
REMARK    2  A    between atoms: N_4  and  C_6
REMARK    3  A    between atoms: N_4  and  C_13
REMARK    4  A    between atoms: C_6  and  C_9
REMARK    5  A    between atoms: N_8  and  C_9
REMARK    6  A    between atoms: N_8  and  C_15
REMARK    7  A    between atoms: N_8  and  C_16
REMARK    8  A    between atoms: C_13  and  C_18
REMARK    9  A    between atoms: C_18  and  C_19
REMARK                            x       y       z     vdW  Elec       q    Type
REMARK                         _______ _______ _______ _____ _____    ______ ____
ROOT
ATOM      1  C   UNL     1     163.369 134.326 143.053  0.00  0.00    +0.000 C 
ATOM      2  N   UNL     1     163.093 133.460 142.913  0.00  0.00    +0.000 N 
ATOM      3  O   UNL     1     164.229 134.724 142.716  0.00  0.00    +0.000 OA
ENDROOT
BRANCH   1   4
ATOM      4  C   UNL     1     162.709 134.853 143.589  0.00  0.00    +0.000 A 
ATOM      5  C   UNL     1     162.943 135.116 144.527  0.00  0.00    +0.000 A 
ATOM      6  C   UNL     1     162.292 135.636 145.056  0.00  0.00    +0.000 A 
ATOM      7  C   UNL     1     161.842 135.105 143.183  0.00  0.00    +0.000 A 
ATOM      8  C   UNL     1     163.811 134.864 144.933  0.00  0.00    +0.000 A 
ATOM      9  C   UNL     1     161.191 135.626 143.713  0.00  0.00    +0.000 A 
ATOM     10  C   UNL     1     161.411 135.892 144.645  0.00  0.00    +0.000 A 
ATOM     11  C   UNL     1     162.512 135.903 145.989  0.00  0.00    +0.000 A 
ATOM     12  C   UNL     1     164.039 135.126 145.865  0.00  0.00    +0.000 A 
ATOM     13  C   UNL     1     163.388 135.647 146.395  0.00  0.00    +0.000 A 
ENDBRANCH   1   4
BRANCH   2  14
ATOM     14  C   UNL     1     163.720 132.959 142.404  0.00  0.00    +0.000 C 
BRANCH  14  15
ATOM     15  C   UNL     1     163.427 132.772 141.505  0.00  0.00    +0.000 C 
BRANCH  15  16
ATOM     16  N   UNL     1     164.060 132.349 140.870  0.00  0.00    +0.000 NA
BRANCH  16  17
ATOM     17  C   UNL     1     164.751 131.603 141.232  0.00  0.00    +0.000 C 
ATOM     18  C   UNL     1     164.682 130.687 140.974  0.00  0.00    +0.000 C 
ENDBRANCH  16  17
BRANCH  16  19
ATOM     19  C   UNL     1     164.099 132.552 139.993  0.00  0.00    +0.000 C 
ATOM     20  C   UNL     1     163.420 133.059 139.513  0.00  0.00    +0.000 C 
ENDBRANCH  16  19
ENDBRANCH  15  16
ENDBRANCH  14  15
ENDBRANCH   2  14
BRANCH   2  21
ATOM     21  C   UNL     1     162.359 132.983 143.154  0.00  0.00    +0.000 C 
BRANCH  21  22
ATOM     22  C   UNL     1     162.362 132.108 143.646  0.00  0.00    +0.000 C 
BRANCH  22  23
ATOM     23  C   UNL     1     161.503 131.679 143.808  0.00  0.00    +0.000 C 
ATOM     24  C   UNL     1     161.295 131.442 144.737  0.00  0.00    +0.000 C 
ENDBRANCH  22  23
ENDBRANCH  21  22
ENDBRANCH   2  21
TORSDOF 9
ENDMDL
MODEL 16
REMARK VINA RESULT:      -6.5      5.239      7.507
REMARK  Name = 
REMARK  9 active torsions:
REMARK  status: ('A' for Active; 'I' for Inactive)
REMARK    1  A    between atoms: C_1  and  C_2
REMARK    2  A    between atoms: N_4  and  C_6
REMARK    3  A    between atoms: N_4  and  C_13
REMARK    4  A    between atoms: C_6  and  C_9
REMARK    5  A    between atoms: N_8  and  C_9
REMARK    6  A    between atoms: N_8  and  C_15
REMARK    7  A    between atoms: N_8  and  C_16
REMARK    8  A    between atoms: C_13  and  C_18
REMARK    9  A    between atoms: C_18  and  C_19
REMARK                            x       y       z     vdW  Elec       q    Type
REMARK                         _______ _______ _______ _____ _____    ______ ____
ROOT
ATOM      1  C   UNL     1     105.252 143.684 155.032  0.00  0.00    +0.000 C 
ATOM      2  N   UNL     1     104.806 144.488 155.040  0.00  0.00    +0.000 N 
ATOM      3  O   UNL     1     105.840 143.354 154.285  0.00  0.00    +0.000 OA
ENDROOT
BRANCH   1   4
ATOM      4  C   UNL     1     105.094 143.152 155.864  0.00  0.00    +0.000 A 
ATOM      5  C   UNL     1     104.620 142.273 155.796  0.00  0.00    +0.000 A 
ATOM      6  C   UNL     1     104.463 141.747 156.618  0.00  0.00    +0.000 A 
ATOM      7  C   UNL     1     105.408 143.504 156.734  0.00  0.00    +0.000 A 
ATOM      8  C   UNL     1     104.305 141.920 154.925  0.00  0.00    +0.000 A 
ATOM      9  C   UNL     1     105.252 142.978 157.556  0.00  0.00    +0.000 A 
ATOM     10  C   UNL     1     104.782 142.104 157.502  0.00  0.00    +0.000 A 
ATOM     11  C   UNL     1     103.993 140.872 156.564  0.00  0.00    +0.000 A 
ATOM     12  C   UNL     1     103.834 141.047 154.862  0.00  0.00    +0.000 A 
ATOM     13  C   UNL     1     103.677 140.521 155.684  0.00  0.00    +0.000 A 
ENDBRANCH   1   4
BRANCH   2  14
ATOM     14  C   UNL     1     104.956 144.993 154.250  0.00  0.00    +0.000 C 
BRANCH  14  15
ATOM     15  C   UNL     1     105.611 145.693 154.356  0.00  0.00    +0.000 C 
BRANCH  15  16
ATOM     16  N   UNL     1     105.690 146.389 153.654  0.00  0.00    +0.000 NA
BRANCH  16  17
ATOM     17  C   UNL     1     105.864 147.414 153.945  0.00  0.00    +0.000 C 
ATOM     18  C   UNL     1     106.335 147.636 154.745  0.00  0.00    +0.000 C 
ENDBRANCH  16  17
BRANCH  16  19
ATOM     19  C   UNL     1     105.624 146.219 152.772  0.00  0.00    +0.000 C 
ATOM     20  C   UNL     1     105.574 146.902 152.080  0.00  0.00    +0.000 C 
ENDBRANCH  16  19
ENDBRANCH  15  16
ENDBRANCH  14  15
ENDBRANCH   2  14
BRANCH   2  21
ATOM     21  C   UNL     1     104.256 144.900 155.634  0.00  0.00    +0.000 C 
BRANCH  21  22
ATOM     22  C   UNL     1     103.365 145.309 155.424  0.00  0.00    +0.000 C 
BRANCH  22  23
ATOM     23  C   UNL     1     102.872 145.720 156.157  0.00  0.00    +0.000 C 
ATOM     24  C   UNL     1     102.355 146.527 155.946  0.00  0.00    +0.000 C 
ENDBRANCH  22  23
ENDBRANCH  21  22
ENDBRANCH   2  21
TORSDOF 9
ENDMDL
MODEL 17
REMARK VINA RESULT:      -6.5     65.000     66.660
REMARK  Name = 
REMARK  9 active torsions:
REMARK  status: ('A' for Active; 'I' for Inactive)
REMARK    1  A    between atoms: C_1  and  C_2
REMARK    2  A    between atoms: N_4  and  C_6
REMARK    3  A    between atoms: N_4  and  C_13
REMARK    4  A    between atoms: C_6  and  C_9
REMARK    5  A    between atoms: N_8  and  C_9
REMARK    6  A    between atoms: N_8  and  C_15
REMARK    7  A    between atoms: N_8  and  C_16
REMARK    8  A    between atoms: C_13  and  C_18
REMARK    9  A    between atoms: C_18  and  C_19
REMARK                            x       y       z     vdW  Elec       q    Type
REMARK                         _______ _______ _______ _____ _____    ______ ____
ROOT
ATOM      1  C   UNL     1     149.081 100.751 192.189  0.00  0.00    +0.000 C 
ATOM      2  N   UNL     1     148.485 100.184 191.779  0.00  0.00    +0.000 N 
ATOM      3  O   UNL     1     149.973 100.481 192.567  0.00  0.00    +0.000 OA
ENDROOT
BRANCH   1   4
ATOM      4  C   UNL     1     148.748 101.693 192.224  0.00  0.00    +0.000 A 
ATOM      5  C   UNL     1     148.493 102.086 193.109  0.00  0.00    +0.000 A 
ATOM      6  C   UNL     1     148.164 103.017 193.143  0.00  0.00    +0.000 A 
ATOM      7  C   UNL     1     148.677 102.216 191.386  0.00  0.00    +0.000 A 
ATOM      8  C   UNL     1     148.563 101.563 193.947  0.00  0.00    +0.000 A 
ATOM      9  C   UNL     1     148.348 103.147 191.421  0.00  0.00    +0.000 A 
ATOM     10  C   UNL     1     148.092 103.549 192.293  0.00  0.00    +0.000 A 
ATOM     11  C   UNL     1     147.907 103.419 194.016  0.00  0.00    +0.000 A 
ATOM     12  C   UNL     1     148.309 101.957 194.824  0.00  0.00    +0.000 A 
ATOM     13  C   UNL     1     147.980 102.888 194.859  0.00  0.00    +0.000 A 
ENDBRANCH   1   4
BRANCH   2  14
ATOM     14  C   UNL     1     148.801  99.288 191.746  0.00  0.00    +0.000 C 
BRANCH  14  15
ATOM     15  C   UNL     1     149.132  99.026 190.879  0.00  0.00    +0.000 C 
BRANCH  15  16
ATOM     16  N   UNL     1     149.574  98.144 190.779  0.00  0.00    +0.000 NA
BRANCH  16  17
ATOM     17  C   UNL     1     150.283  97.997 189.978  0.00  0.00    +0.000 C 
ATOM     18  C   UNL     1     150.596  98.723 189.444  0.00  0.00    +0.000 C 
ENDBRANCH  16  17
BRANCH  16  19
ATOM     19  C   UNL     1     149.419  97.444 191.324  0.00  0.00    +0.000 C 
ATOM     20  C   UNL     1     149.352  96.518 191.028  0.00  0.00    +0.000 C 
ENDBRANCH  16  19
ENDBRANCH  15  16
ENDBRANCH  14  15
ENDBRANCH   2  14
BRANCH   2  21
ATOM     21  C   UNL     1     147.665 100.292 191.402  0.00  0.00    +0.000 C 
BRANCH  21  22
ATOM     22  C   UNL     1     146.842  99.763 191.623  0.00  0.00    +0.000 C 
BRANCH  22  23
ATOM     23  C   UNL     1     146.006 100.028 191.199  0.00  0.00    +0.000 C 
ATOM     24  C   UNL     1     145.191  99.575 191.504  0.00  0.00    +0.000 C 
ENDBRANCH  22  23
ENDBRANCH  21  22
ENDBRANCH   2  21
TORSDOF 9
ENDMDL
MODEL 18
REMARK VINA RESULT:      -6.5     55.474     56.965
REMARK  Name = 
REMARK  9 active torsions:
REMARK  status: ('A' for Active; 'I' for Inactive)
REMARK    1  A    between atoms: C_1  and  C_2
REMARK    2  A    between atoms: N_4  and  C_6
REMARK    3  A    between atoms: N_4  and  C_13
REMARK    4  A    between atoms: C_6  and  C_9
REMARK    5  A    between atoms: N_8  and  C_9
REMARK    6  A    between atoms: N_8  and  C_15
REMARK    7  A    between atoms: N_8  and  C_16
REMARK    8  A    between atoms: C_13  and  C_18
REMARK    9  A    between atoms: C_18  and  C_19
REMARK                            x       y       z     vdW  Elec       q    Type
REMARK                         _______ _______ _______ _____ _____    ______ ____
ROOT
ATOM      1  C   UNL     1     143.932 120.002 126.089  0.00  0.00    +0.000 C 
ATOM      2  N   UNL     1     144.513 119.342 126.356  0.00  0.00    +0.000 N 
ATOM      3  O   UNL     1     143.029 120.181 126.494  0.00  0.00    +0.000 OA
ENDROOT
BRANCH   1   4
ATOM      4  C   UNL     1     144.295 120.545 125.332  0.00  0.00    +0.000 A 
ATOM      5  C   UNL     1     143.869 120.467 124.429  0.00  0.00    +0.000 A 
ATOM      6  C   UNL     1     144.228 121.003 123.680  0.00  0.00    +0.000 A 
ATOM      7  C   UNL     1     145.066 121.146 125.489  0.00  0.00    +0.000 A 
ATOM      8  C   UNL     1     143.098 119.866 124.271  0.00  0.00    +0.000 A 
ATOM      9  C   UNL     1     145.425 121.682 124.741  0.00  0.00    +0.000 A 
ATOM     10  C   UNL     1     145.011 121.614 123.840  0.00  0.00    +0.000 A 
ATOM     11  C   UNL     1     143.814 120.935 122.779  0.00  0.00    +0.000 A 
ATOM     12  C   UNL     1     142.677 119.791 123.372  0.00  0.00    +0.000 A 
ATOM     13  C   UNL     1     143.036 120.327 122.624  0.00  0.00    +0.000 A 
ENDBRANCH   1   4
BRANCH   2  14
ATOM     14  C   UNL     1     144.167 118.826 127.076  0.00  0.00    +0.000 C 
BRANCH  14  15
ATOM     15  C   UNL     1     144.609 118.991 127.918  0.00  0.00    +0.000 C 
BRANCH  15  16
ATOM     16  N   UNL     1     144.259 118.556 128.737  0.00  0.00    +0.000 NA
BRANCH  16  17
ATOM     17  C   UNL     1     144.004 117.507 128.711  0.00  0.00    +0.000 C 
ATOM     18  C   UNL     1     144.454 116.867 129.256  0.00  0.00    +0.000 C 
ENDBRANCH  16  17
BRANCH  16  19
ATOM     19  C   UNL     1     144.138 118.988 129.519  0.00  0.00    +0.000 C 
ATOM     20  C   UNL     1     144.680 119.735 129.827  0.00  0.00    +0.000 C 
ENDBRANCH  16  19
ENDBRANCH  15  16
ENDBRANCH  14  15
ENDBRANCH   2  14
BRANCH   2  21
ATOM     21  C   UNL     1     145.338 119.077 126.085  0.00  0.00    +0.000 C 
BRANCH  21  22
ATOM     22  C   UNL     1     145.593 118.149 125.802  0.00  0.00    +0.000 C 
BRANCH  22  23
ATOM     23  C   UNL     1     146.435 118.038 125.324  0.00  0.00    +0.000 C 
ATOM     24  C   UNL     1     146.409 117.514 124.495  0.00  0.00    +0.000 C 
ENDBRANCH  22  23
ENDBRANCH  21  22
ENDBRANCH   2  21
TORSDOF 9
ENDMDL
MODEL 19
REMARK VINA RESULT:      -6.5     56.538     59.536
REMARK  Name = 
REMARK  9 active torsions:
REMARK  status: ('A' for Active; 'I' for Inactive)
REMARK    1  A    between atoms: C_1  and  C_2
REMARK    2  A    between atoms: N_4  and  C_6
REMARK    3  A    between atoms: N_4  and  C_13
REMARK    4  A    between atoms: C_6  and  C_9
REMARK    5  A    between atoms: N_8  and  C_9
REMARK    6  A    between atoms: N_8  and  C_15
REMARK    7  A    between atoms: N_8  and  C_16
REMARK    8  A    between atoms: C_13  and  C_18
REMARK    9  A    between atoms: C_18  and  C_19
REMARK                            x       y       z     vdW  Elec       q    Type
REMARK                         _______ _______ _______ _____ _____    ______ ____
ROOT
ATOM      1  C   UNL     1      93.072 137.387 104.191  0.00  0.00    +0.000 C 
ATOM      2  N   UNL     1      93.800 137.807 103.818  0.00  0.00    +0.000 N 
ATOM      3  O   UNL     1      93.082 136.474 104.613  0.00  0.00    +0.000 OA
ENDROOT
BRANCH   1   4
ATOM      4  C   UNL     1      92.242 137.941 104.134  0.00  0.00    +0.000 A 
ATOM      5  C   UNL     1      91.486 137.630 103.556  0.00  0.00    +0.000 A 
ATOM      6  C   UNL     1      90.666 138.177 103.500  0.00  0.00    +0.000 A 
ATOM      7  C   UNL     1      92.183 138.784 104.650  0.00  0.00    +0.000 A 
ATOM      8  C   UNL     1      91.544 136.786 103.039  0.00  0.00    +0.000 A 
ATOM      9  C   UNL     1      91.363 139.332 104.595  0.00  0.00    +0.000 A 
ATOM     10  C   UNL     1      90.606 139.033 104.024  0.00  0.00    +0.000 A 
ATOM     11  C   UNL     1      89.909 137.878 102.929  0.00  0.00    +0.000 A 
ATOM     12  C   UNL     1      90.792 136.480 102.466  0.00  0.00    +0.000 A 
ATOM     13  C   UNL     1      89.972 137.027 102.410  0.00  0.00    +0.000 A 
ENDBRANCH   1   4
BRANCH   2  14
ATOM     14  C   UNL     1      94.588 137.280 103.871  0.00  0.00    +0.000 C 
BRANCH  14  15
ATOM     15  C   UNL     1      95.196 137.560 104.566  0.00  0.00    +0.000 C 
BRANCH  15  16
ATOM     16  N   UNL     1      96.033 137.049 104.709  0.00  0.00    +0.000 NA
BRANCH  16  17
ATOM     17  C   UNL     1      96.366 136.852 105.717  0.00  0.00    +0.000 C 
ATOM     18  C   UNL     1      95.913 137.214 106.475  0.00  0.00    +0.000 C 
ENDBRANCH  16  17
BRANCH  16  19
ATOM     19  C   UNL     1      96.544 136.731 104.039  0.00  0.00    +0.000 C 
ATOM     20  C   UNL     1      97.475 136.976 103.890  0.00  0.00    +0.000 C 
ENDBRANCH  16  19
ENDBRANCH  15  16
ENDBRANCH  14  15
ENDBRANCH   2  14
BRANCH   2  21
ATOM     21  C   UNL     1      93.927 138.610 103.413  0.00  0.00    +0.000 C 
BRANCH  21  22
ATOM     22  C   UNL     1      94.259 138.749 102.476  0.00  0.00    +0.000 C 
BRANCH  22  23
ATOM     23  C   UNL     1      94.248 139.657 102.123  0.00  0.00    +0.000 C 
ATOM     24  C   UNL     1      93.656 139.829 101.360  0.00  0.00    +0.000 C 
ENDBRANCH  22  23
ENDBRANCH  21  22
ENDBRANCH   2  21
TORSDOF 9
ENDMDL
MODEL 20
REMARK VINA RESULT:      -6.4     56.811     59.226
REMARK  Name = 
REMARK  9 active torsions:
REMARK  status: ('A' for Active; 'I' for Inactive)
REMARK    1  A    between atoms: C_1  and  C_2
REMARK    2  A    between atoms: N_4  and  C_6
REMARK    3  A    between atoms: N_4  and  C_13
REMARK    4  A    between atoms: C_6  and  C_9
REMARK    5  A    between atoms: N_8  and  C_9
REMARK    6  A    between atoms: N_8  and  C_15
REMARK    7  A    between atoms: N_8  and  C_16
REMARK    8  A    between atoms: C_13  and  C_18
REMARK    9  A    between atoms: C_18  and  C_19
REMARK                            x       y       z     vdW  Elec       q    Type
REMARK                         _______ _______ _______ _____ _____    ______ ____
ROOT
ATOM      1  C   UNL     1      93.876 138.228 104.020  0.00  0.00    +0.000 C 
ATOM      2  N   UNL     1      93.196 137.684 103.726  0.00  0.00    +0.000 N 
ATOM      3  O   UNL     1      93.754 139.133 104.442  0.00  0.00    +0.000 OA
ENDROOT
BRANCH   1   4
ATOM      4  C   UNL     1      94.778 137.822 103.876  0.00  0.00    +0.000 A 
ATOM      5  C   UNL     1      95.296 137.493 104.668  0.00  0.00    +0.000 A 
ATOM      6  C   UNL     1      96.188 137.092 104.526  0.00  0.00    +0.000 A 
ATOM      7  C   UNL     1      95.141 137.754 102.958  0.00  0.00    +0.000 A 
ATOM      8  C   UNL     1      94.933 137.561 105.588  0.00  0.00    +0.000 A 
ATOM      9  C   UNL     1      96.032 137.353 102.815  0.00  0.00    +0.000 A 
ATOM     10  C   UNL     1      96.556 137.023 103.593  0.00  0.00    +0.000 A 
ATOM     11  C   UNL     1      96.711 136.762 105.304  0.00  0.00    +0.000 A 
ATOM     12  C   UNL     1      95.450 137.233 106.371  0.00  0.00    +0.000 A 
ATOM     13  C   UNL     1      96.342 136.832 106.229  0.00  0.00    +0.000 A 
ENDBRANCH   1   4
BRANCH   2  14
ATOM     14  C   UNL     1      92.339 138.070 103.862  0.00  0.00    +0.000 C 
BRANCH  14  15
ATOM     15  C   UNL     1      91.871 138.276 103.044  0.00  0.00    +0.000 C 
BRANCH  15  16
ATOM     16  N   UNL     1      91.046 138.823 103.087  0.00  0.00    +0.000 NA
BRANCH  16  17
ATOM     17  C   UNL     1      90.278 138.565 103.802  0.00  0.00    +0.000 C 
ATOM     18  C   UNL     1      89.477 138.118 103.539  0.00  0.00    +0.000 C 
ENDBRANCH  16  17
BRANCH  16  19
ATOM     19  C   UNL     1      90.890 139.535 102.557  0.00  0.00    +0.000 C 
ATOM     20  C   UNL     1      91.127 139.585 101.614  0.00  0.00    +0.000 C 
ENDBRANCH  16  19
ENDBRANCH  15  16
ENDBRANCH  14  15
ENDBRANCH   2  14
BRANCH   2  21
ATOM     21  C   UNL     1      93.166 136.864 103.336  0.00  0.00    +0.000 C 
BRANCH  21  22
ATOM     22  C   UNL     1      92.666 136.066 103.682  0.00  0.00    +0.000 C 
BRANCH  22  23
ATOM     23  C   UNL     1      92.719 135.241 103.167  0.00  0.00    +0.000 C 
ATOM     24  C   UNL     1      93.184 134.486 103.588  0.00  0.00    +0.000 C 
ENDBRANCH  22  23
ENDBRANCH  21  22
ENDBRANCH   2  21
TORSDOF 9
ENDMDL
