REMARK  Name = 
REMARK  15 active torsions:
REMARK  status: ('A' for Active; 'I' for Inactive)
REMARK    1  A    between atoms: C_1  and  O_10
REMARK    2  A    between atoms: C_2  and  C_19
REMARK    3  A    between atoms: C_3  and  O_10
REMARK    4  A    between atoms: C_14  and  O_25
REMARK    5  A    between atoms: C_17  and  C_27
REMARK    6  A    between atoms: C_24  and  O_39
REMARK    7  A    between atoms: O_25  and  C_27
REMARK    8  A    between atoms: C_28  and  O_40
REMARK    9  A    between atoms: C_35  and  O_41
REMARK   10  A    between atoms: O_39  and  C_49
REMARK   11  A    between atoms: O_40  and  C_50
REMARK   12  A    between atoms: O_41  and  C_51
REMARK   13  A    between atoms: C_46  and  C_50
REMARK   14  A    between atoms: C_47  and  C_49
REMARK   15  A    between atoms: C_48  and  C_51
REMARK                            x       y       z     vdW  Elec       q    Type
REMARK                         _______ _______ _______ _____ _____    ______ ____
ROOT
ATOM      1  C   UNL     1      -0.397   1.883   0.000  0.00  0.00    +0.000 A 
ATOM      2  C   UNL     1      -0.397   2.709   0.000  0.00  0.00    +0.000 A 
ATOM      3  C   UNL     1      -1.099   1.470   0.000  0.00  0.00    +0.000 A 
ATOM      4  O   UNL     1      -1.099   3.122   0.000  0.00  0.00    +0.000 OA
ATOM      5  C   UNL     1      -1.821   2.709   0.000  0.00  0.00    +0.000 A 
ATOM      6  C   UNL     1      -1.821   1.883   0.000  0.00  0.00    +0.000 A 
ATOM      7  C   UNL     1      -2.533   3.122   0.000  0.00  0.00    +0.000 A 
ATOM      8  C   UNL     1      -2.533   1.470   0.000  0.00  0.00    +0.000 A 
ATOM      9  O   UNL     1      -1.099   0.645   0.000  0.00  0.00    +0.000 OA
ATOM     10  C   UNL     1      -3.245   2.709   0.000  0.00  0.00    +0.000 A 
ATOM     11  C   UNL     1      -3.245   1.883   0.000  0.00  0.00    +0.000 A 
ATOM     12  O   UNL     1      -2.533   0.645   0.000  0.00  0.00    +0.000 OA
ENDROOT
BRANCH   2  13
ATOM     13  C   UNL     1       0.325   3.122   0.000  0.00  0.00    +0.000 A 
ATOM     14  C   UNL     1       1.037   2.709   0.000  0.00  0.00    +0.000 A 
ATOM     15  C   UNL     1       1.754   3.122   0.000  0.00  0.00    +0.000 A 
ATOM     16  C   UNL     1       1.754   3.942   0.000  0.00  0.00    +0.000 A 
ATOM     17  C   UNL     1       0.325   3.942   0.000  0.00  0.00    +0.000 A 
ATOM     18  C   UNL     1       1.037   4.360   0.000  0.00  0.00    +0.000 A 
BRANCH  15  19
ATOM     19  O   UNL     1       2.466   2.709   0.000  0.00  0.00    +0.000 OA
BRANCH  19  20
ATOM     20  C   UNL     1       3.178   3.122   0.000  0.00  0.00    +0.000 C 
BRANCH  20  22
ATOM     21  O   UNL     1       4.603   3.122   0.000  0.00  0.00    +0.000 OA
ATOM     22  C   UNL     1       3.890   2.709   0.000  0.00  0.00    +0.000 C 
ENDBRANCH  20  22
ENDBRANCH  19  20
ENDBRANCH  15  19
BRANCH  16  23
ATOM     23  O   UNL     1       2.466   4.360   0.000  0.00  0.00    +0.000 OA
BRANCH  23  24
ATOM     24  C   UNL     1       3.178   3.942   0.000  0.00  0.00    +0.000 C 
BRANCH  24  26
ATOM     25  O   UNL     1       4.603   3.942   0.000  0.00  0.00    +0.000 OA
ATOM     26  C   UNL     1       3.890   4.360   0.000  0.00  0.00    +0.000 C 
ENDBRANCH  24  26
ENDBRANCH  23  24
ENDBRANCH  16  23
ENDBRANCH   2  13
BRANCH   1  27
ATOM     27  O   UNL     1       0.325   1.470   0.000  0.00  0.00    +0.000 OA
BRANCH  27  28
ATOM     28  C   UNL     1       0.325   0.645   0.000  0.00  0.00    +0.000 C 
ATOM     29  C   UNL     1       1.037   0.232   0.000  0.00  0.00    +0.000 C 
ATOM     30  C   UNL     1       1.037  -0.588   0.000  0.00  0.00    +0.000 C 
ATOM     31  O   UNL     1      -0.397   0.232   0.000  0.00  0.00    +0.000 OA
ATOM     32  C   UNL     1       0.325  -0.996   0.000  0.00  0.00    +0.000 C 
ATOM     33  C   UNL     1      -0.397  -0.588   0.000  0.00  0.00    +0.000 C 
ATOM     34  O   UNL     1       1.754   0.645   0.000  0.00  0.00    +0.000 OA
ATOM     35  O   UNL     1       1.754  -0.996   0.000  0.00  0.00    +0.000 OA
ATOM     36  O   UNL     1       0.325  -1.827   0.000  0.00  0.00    +0.000 OA
BRANCH  33  37
ATOM     37  C   UNL     1      -1.099  -0.996   0.000  0.00  0.00    +0.000 C 
BRANCH  37  38
ATOM     38  O   UNL     1      -1.099  -1.827   0.000  0.00  0.00    +0.000 OA
BRANCH  38  41
ATOM     39  C   UNL     1      -1.821  -3.065   0.000  0.00  0.00    +0.000 C 
ATOM     40  C   UNL     1      -2.533  -3.473   0.000  0.00  0.00    +0.000 C 
ATOM     41  C   UNL     1      -1.821  -2.234   0.000  0.00  0.00    +0.000 C 
ATOM     42  O   UNL     1      -2.533  -1.827   0.000  0.00  0.00    +0.000 OA
ATOM     43  C   UNL     1      -3.245  -3.065   0.000  0.00  0.00    +0.000 C 
ATOM     44  C   UNL     1      -3.245  -2.234   0.000  0.00  0.00    +0.000 C 
ATOM     45  O   UNL     1      -1.099  -3.473   0.000  0.00  0.00    +0.000 OA
ATOM     46  O   UNL     1      -2.533  -4.293   0.000  0.00  0.00    +0.000 OA
ATOM     47  O   UNL     1      -3.963  -3.473   0.000  0.00  0.00    +0.000 OA
ATOM     48  C   UNL     1      -3.963  -1.827   0.000  0.00  0.00    +0.000 C 
ENDBRANCH  38  41
ENDBRANCH  37  38
ENDBRANCH  33  37
ENDBRANCH  27  28
ENDBRANCH   1  27
BRANCH  10  49
ATOM     49  O   UNL     1      -3.963   3.122   0.000  0.00  0.00    +0.000 OA
BRANCH  49  50
ATOM     50  C   UNL     1      -4.670   2.709   0.000  0.00  0.00    +0.000 C 
BRANCH  50  52
ATOM     51  O   UNL     1      -3.963   1.470   0.000  0.00  0.00    +0.000 OA
ATOM     52  C   UNL     1      -4.670   1.883   0.000  0.00  0.00    +0.000 C 
ENDBRANCH  50  52
ENDBRANCH  49  50
ENDBRANCH  10  49
TORSDOF 15
