REMARK  Name = 
REMARK  0 active torsions:
REMARK  status: ('A' for Active; 'I' for Inactive)
REMARK                            x       y       z     vdW  Elec       q    Type
REMARK                         _______ _______ _______ _____ _____    ______ ____
ROOT
ATOM      1  C   UNL     1      -1.312  -1.479   0.000  0.00  0.00    +0.000 C 
ATOM      2  C   UNL     1       1.575   0.087   0.000  0.00  0.00    +0.000 C 
ATOM      3  C   UNL     1      -1.312  -2.600   0.000  0.00  0.00    +0.000 C 
ATOM      4  C   UNL     1       2.804   0.396   0.000  0.00  0.00    +0.000 C 
ATOM      5  C   UNL     1       0.600  -1.500   0.000  0.00  0.00    +0.000 C 
ATOM      6  C   UNL     1      -0.346  -0.942   0.000  0.00  0.00    +0.000 C 
ATOM      7  C   UNL     1       1.554  -0.979   0.000  0.00  0.00    +0.000 C 
ATOM      8  C   UNL     1       0.562  -2.654   0.000  0.00  0.00    +0.000 C 
ATOM      9  O   UNL     1       2.429   1.633   0.000  0.00  0.00    +0.000 OA
ATOM     10  C   UNL     1      -0.371  -3.188   0.000  0.00  0.00    +0.000 C 
ATOM     11  C   UNL     1      -2.283  -3.138   0.000  0.00  0.00    +0.000 C 
ATOM     12  C   UNL     1       0.629   0.671   0.000  0.00  0.00    +0.000 C 
ATOM     13  C   UNL     1       3.404   2.225   0.000  0.00  0.00    +0.000 C 
ATOM     14  C   UNL     1      -0.300   0.158   0.000  0.00  0.00    +0.000 C 
ATOM     15  C   UNL     1      -2.237  -0.900   0.000  0.00  0.00    +0.000 C 
ATOM     16  C   UNL     1       2.592  -1.379   0.000  0.00  0.00    +0.000 C 
ATOM     17  C   UNL     1       3.417  -0.575   0.000  0.00  0.00    +0.000 C 
ATOM     18  C   UNL     1      -3.246  -2.567   0.000  0.00  0.00    +0.000 C 
ATOM     19  C   UNL     1       4.217   0.621   0.000  0.00  0.00    +0.000 C 
ATOM     20  O   UNL     1       3.404   3.171   0.000  0.00  0.00    +0.000 OA
ATOM     21  O   UNL     1      -4.208  -3.092   0.000  0.00  0.00    +0.000 OA
ATOM     22  C   UNL     1       4.342   1.562   0.000  0.00  0.00    +0.000 C 
ATOM     23  C   UNL     1      -3.221  -1.417   0.000  0.00  0.00    +0.000 C 
ATOM     24  C   UNL     1      -1.312  -0.342   0.000  0.00  0.00    +0.000 C 
ATOM     25  C   UNL     1       1.562   1.246   0.000  0.00  0.00    +0.000 C 
ENDROOT
TORSDOF 0
