REMARK  Name = 
REMARK  6 active torsions:
REMARK  status: ('A' for Active; 'I' for Inactive)
REMARK    1  A    between atoms: O_2  and  C_17
REMARK    2  A    between atoms: O_2  and  C_22
REMARK    3  A    between atoms: O_6  and  C_34
REMARK    4  A    between atoms: O_6  and  C_36
REMARK    5  A    between atoms: C_19  and  C_23
REMARK    6  A    between atoms: C_27  and  C_34
REMARK                            x       y       z     vdW  Elec       q    Type
REMARK                         _______ _______ _______ _____ _____    ______ ____
ROOT
ATOM      1  O   UNL     1      -1.230   0.902   0.000  0.00  0.00    +0.000 OA
ENDROOT
BRANCH   1   6
ATOM      2  O   UNL     1       0.199   2.552   0.000  0.00  0.00    +0.000 OA
ATOM      3  O   UNL     1       0.199   0.077   0.000  0.00  0.00    +0.000 OA
ATOM      4  O   UNL     1       1.628   0.077   0.000  0.00  0.00    +0.000 OA
ATOM      5  O   UNL     1       3.057   2.552   0.000  0.00  0.00    +0.000 OA
ATOM      6  C   UNL     1      -0.515   1.314   0.000  0.00  0.00    +0.000 A 
ATOM      7  C   UNL     1       0.914   1.314   0.000  0.00  0.00    +0.000 A 
ATOM      8  C   UNL     1      -0.515   2.139   0.000  0.00  0.00    +0.000 A 
ATOM      9  C   UNL     1       0.199   0.902   0.000  0.00  0.00    +0.000 A 
ATOM     10  C   UNL     1       0.914   2.139   0.000  0.00  0.00    +0.000 A 
ATOM     11  C   UNL     1       1.628   0.902   0.000  0.00  0.00    +0.000 A 
ATOM     12  C   UNL     1       1.628   2.552   0.000  0.00  0.00    +0.000 A 
ATOM     13  C   UNL     1       2.343   2.139   0.000  0.00  0.00    +0.000 A 
ATOM     14  C   UNL     1       2.343   1.314   0.000  0.00  0.00    +0.000 A 
BRANCH   8  17
ATOM     15  O   UNL     1      -3.373   2.139   0.000  0.00  0.00    +0.000 OA
ATOM     16  O   UNL     1      -3.373   3.789   0.000  0.00  0.00    +0.000 OA
ATOM     17  C   UNL     1      -1.230   2.552   0.000  0.00  0.00    +0.000 A 
ATOM     18  C   UNL     1      -1.944   2.139   0.000  0.00  0.00    +0.000 A 
ATOM     19  C   UNL     1      -1.230   3.377   0.000  0.00  0.00    +0.000 A 
ATOM     20  C   UNL     1      -2.659   2.552   0.000  0.00  0.00    +0.000 A 
ATOM     21  C   UNL     1      -2.659   3.377   0.000  0.00  0.00    +0.000 A 
ATOM     22  C   UNL     1      -1.944   3.789   0.000  0.00  0.00    +0.000 A 
ENDBRANCH   8  17
ENDBRANCH   1   6
BRANCH   1  27
ATOM     23  O   UNL     1      -0.515  -0.336   0.000  0.00  0.00    +0.000 OA
ATOM     24  O   UNL     1      -2.659   0.077   0.000  0.00  0.00    +0.000 OA
ATOM     25  O   UNL     1      -2.659  -1.573   0.000  0.00  0.00    +0.000 OA
ATOM     26  O   UNL     1      -1.230  -2.398   0.000  0.00  0.00    +0.000 OA
ATOM     27  C   UNL     1      -1.230   0.077   0.000  0.00  0.00    +0.000 C 
ATOM     28  C   UNL     1      -1.944  -0.336   0.000  0.00  0.00    +0.000 C 
ATOM     29  C   UNL     1      -0.515  -1.161   0.000  0.00  0.00    +0.000 C 
ATOM     30  C   UNL     1      -1.944  -1.161   0.000  0.00  0.00    +0.000 C 
ATOM     31  C   UNL     1      -1.230  -1.573   0.000  0.00  0.00    +0.000 C 
BRANCH  29  32
ATOM     32  C   UNL     1       0.199  -1.573   0.000  0.00  0.00    +0.000 C 
BRANCH  32  33
ATOM     33  O   UNL     1       0.199  -2.398   0.000  0.00  0.00    +0.000 OA
BRANCH  33  38
ATOM     34  O   UNL     1       0.914  -3.636   0.000  0.00  0.00    +0.000 OA
ATOM     35  O   UNL     1       1.628  -1.573   0.000  0.00  0.00    +0.000 OA
ATOM     36  O   UNL     1       3.057  -2.398   0.000  0.00  0.00    +0.000 OA
ATOM     37  O   UNL     1       3.057  -4.048   0.000  0.00  0.00    +0.000 OA
ATOM     38  C   UNL     1       0.914  -2.811   0.000  0.00  0.00    +0.000 C 
ATOM     39  C   UNL     1       1.628  -2.398   0.000  0.00  0.00    +0.000 C 
ATOM     40  C   UNL     1       2.343  -2.811   0.000  0.00  0.00    +0.000 C 
ATOM     41  C   UNL     1       2.343  -3.636   0.000  0.00  0.00    +0.000 C 
ATOM     42  C   UNL     1       1.628  -4.048   0.000  0.00  0.00    +0.000 C 
ATOM     43  C   UNL     1       1.628  -4.873   0.000  0.00  0.00    +0.000 C 
ENDBRANCH  33  38
ENDBRANCH  32  33
ENDBRANCH  29  32
ENDBRANCH   1  27
TORSDOF 6
