REMARK  Name = 
REMARK  14 active torsions:
REMARK  status: ('A' for Active; 'I' for Inactive)
REMARK    1  A    between atoms: O_1  and  C_18
REMARK    2  A    between atoms: N_9  and  CA_21
REMARK    3  A    between atoms: N_11  and  CA_26
REMARK    4  A    between atoms: N_12  and  CA_31
REMARK    5  A    between atoms: C_15  and  C_17
REMARK    6  A    between atoms: C_17  and  CA_21
REMARK    7  A    between atoms: CA_21  and  C_24
REMARK    8  A    between atoms: C_25  and  CA_26
REMARK    9  A    between atoms: CA_26  and  C_30
REMARK   10  A    between atoms: C_30  and  C_32
REMARK   11  A    between atoms: CA_31  and  C_35
REMARK   12  A    between atoms: CA_31  and  C_38
REMARK   13  A    between atoms: C_38  and  C_44
REMARK   14  A    between atoms: C_44  and  C_45
REMARK                            x       y       z     vdW  Elec       q    Type
REMARK                         _______ _______ _______ _____ _____    ______ ____
ROOT
ATOM      1  CA  UNL     1       8.911  -4.235   0.000  0.00  0.00    +0.000 C 
ENDROOT
BRANCH   1   4
ATOM      2  O   UNL     1       7.602  -3.663   0.000  0.00  0.00    +0.000 OA
ATOM      3  N   UNL     1       8.752  -2.815   0.000  0.00  0.00    +0.000 NA
ATOM      4  C   UNL     1       8.422  -3.571   0.000  0.00  0.00    +0.000 C 
BRANCH   3   5
ATOM      5  CA  UNL     1       8.263  -2.151   0.000  0.00  0.00    +0.000 C 
BRANCH   5   8
ATOM      6  O   UNL     1       6.953  -1.579   0.000  0.00  0.00    +0.000 OA
ATOM      7  OXT UNL     1       7.112  -2.999   0.000  0.00  0.00    +0.000 OA
ATOM      8  C   UNL     1       7.443  -2.243   0.000  0.00  0.00    +0.000 C 
ENDBRANCH   5   8
BRANCH   5   9
ATOM      9  C   UNL     1       8.593  -1.395   0.000  0.00  0.00    +0.000 C 
BRANCH   9  10
ATOM     10  C   UNL     1       8.103  -0.731   0.000  0.00  0.00    +0.000 C 
BRANCH  10  11
ATOM     11  C   UNL     1       8.434   0.025   0.000  0.00  0.00    +0.000 C 
ATOM     12  C   UNL     1       7.944   0.690   0.000  0.00  0.00    +0.000 C 
ENDBRANCH  10  11
ENDBRANCH   9  10
ENDBRANCH   5   9
ENDBRANCH   3   5
ENDBRANCH   1   4
BRANCH   1  14
ATOM     13  O   UNL     1       9.572  -2.723   0.000  0.00  0.00    +0.000 OA
ATOM     14  N   UNL     1       9.731  -4.143   0.000  0.00  0.00    +0.000 NA
ATOM     15  C   UNL     1      10.062  -3.387   0.000  0.00  0.00    +0.000 C 
BRANCH  15  16
ATOM     16  CA  UNL     1      10.882  -3.295   0.000  0.00  0.00    +0.000 C 
BRANCH  16  19
ATOM     17  O   UNL     1      12.521  -3.111   0.000  0.00  0.00    +0.000 OA
ATOM     18  N   UNL     1      12.362  -1.691   0.000  0.00  0.00    +0.000 N 
ATOM     19  N   UNL     1      11.212  -2.539   0.000  0.00  0.00    +0.000 NA
ATOM     20  C   UNL     1      12.032  -2.447   0.000  0.00  0.00    +0.000 C 
ATOM     21  C   UNL     1      13.182  -1.599   0.000  0.00  0.00    +0.000 C 
ATOM     22  C   UNL     1      11.872  -1.027   0.000  0.00  0.00    +0.000 C 
ATOM     23  C   UNL     1      13.512  -0.843   0.000  0.00  0.00    +0.000 C 
ATOM     24  C   UNL     1      12.203  -0.271   0.000  0.00  0.00    +0.000 C 
ATOM     25  C   UNL     1      13.022  -0.179   0.000  0.00  0.00    +0.000 C 
ATOM     26  C   UNL     1      13.671  -2.263   0.000  0.00  0.00    +0.000 C 
ATOM     27  C   UNL     1      11.052  -1.119   0.000  0.00  0.00    +0.000 C 
ENDBRANCH  16  19
BRANCH  16  28
ATOM     28  C   UNL     1      11.371  -3.959   0.000  0.00  0.00    +0.000 C 
BRANCH  28  29
ATOM     29  C   UNL     1      11.041  -4.715   0.000  0.00  0.00    +0.000 C 
ATOM     30  C   UNL     1      10.710  -5.471   0.000  0.00  0.00    +0.000 C 
ATOM     31  C   UNL     1      11.797  -5.045   0.000  0.00  0.00    +0.000 C 
ATOM     32  C   UNL     1      10.285  -4.385   0.000  0.00  0.00    +0.000 C 
ENDBRANCH  28  29
ENDBRANCH  16  28
ENDBRANCH  15  16
ENDBRANCH   1  14
BRANCH   1  33
ATOM     33  C   UNL     1       8.581  -4.991   0.000  0.00  0.00    +0.000 C 
BRANCH  33  38
ATOM     34  O   UNL     1       5.731  -3.582   0.000  0.00  0.00    +0.000 OA
ATOM     35  N   UNL     1       6.454  -4.814   0.000  0.00  0.00    +0.000 N 
ATOM     36  C   UNL     1       7.354  -5.800   0.000  0.00  0.00    +0.000 A 
ATOM     37  C   UNL     1       6.546  -5.634   0.000  0.00  0.00    +0.000 A 
ATOM     38  C   UNL     1       7.761  -5.083   0.000  0.00  0.00    +0.000 A 
ATOM     39  C   UNL     1       7.205  -4.473   0.000  0.00  0.00    +0.000 A 
ATOM     40  C   UNL     1       5.736  -4.407   0.000  0.00  0.00    +0.000 C 
ATOM     41  C   UNL     1       7.614  -6.583   0.000  0.00  0.00    +0.000 A 
ATOM     42  C   UNL     1       5.998  -6.251   0.000  0.00  0.00    +0.000 A 
ATOM     43  C   UNL     1       7.066  -7.200   0.000  0.00  0.00    +0.000 A 
ATOM     44  C   UNL     1       6.258  -7.034   0.000  0.00  0.00    +0.000 A 
BRANCH  40  45
ATOM     45  O   UNL     1       5.025  -4.824   0.000  0.00  0.00    +0.000 OA
ATOM     46  C   UNL     1       4.308  -4.417   0.000  0.00  0.00    +0.000 C 
ENDBRANCH  40  45
ENDBRANCH  33  38
ENDBRANCH   1  33
TORSDOF 14
