
     RDKit          2D

 43 47  0  0  1  0  0  0  0  0999 V2000
    0.1994    2.5517    0.0000 O   0  0  0  0  0  0  0  0  0  0  0  0
   -1.2296    0.9017    0.0000 O   0  0  0  0  0  0  0  0  0  0  0  0
   -0.5151   -0.3358    0.0000 O   0  0  0  0  0  0  0  0  0  0  0  0
    0.1994    0.0767    0.0000 O   0  0  0  0  0  0  0  0  0  0  0  0
    1.6283    0.0767    0.0000 O   0  0  0  0  0  0  0  0  0  0  0  0
    0.1994   -2.3983    0.0000 O   0  0  0  0  0  0  0  0  0  0  0  0
   -2.6585    0.0767    0.0000 O   0  0  0  0  0  0  0  0  0  0  0  0
    0.9139   -3.6358    0.0000 O   0  0  0  0  0  0  0  0  0  0  0  0
   -2.6585   -1.5733    0.0000 O   0  0  0  0  0  0  0  0  0  0  0  0
   -1.2296   -2.3983    0.0000 O   0  0  0  0  0  0  0  0  0  0  0  0
    3.0573    2.5517    0.0000 O   0  0  0  0  0  0  0  0  0  0  0  0
   -3.3730    2.1392    0.0000 O   0  0  0  0  0  0  0  0  0  0  0  0
    1.6283   -1.5733    0.0000 O   0  0  0  0  0  0  0  0  0  0  0  0
   -3.3730    3.7892    0.0000 O   0  0  0  0  0  0  0  0  0  0  0  0
    3.0573   -2.3983    0.0000 O   0  0  0  0  0  0  0  0  0  0  0  0
    3.0573   -4.0483    0.0000 O   0  0  0  0  0  0  0  0  0  0  0  0
   -0.5151    1.3142    0.0000 C   0  0  0  0  0  0  0  0  0  0  0  0
    0.9139    1.3142    0.0000 C   0  0  0  0  0  0  0  0  0  0  0  0
   -0.5151    2.1392    0.0000 C   0  0  0  0  0  0  0  0  0  0  0  0
    0.1994    0.9017    0.0000 C   0  0  0  0  0  0  0  0  0  0  0  0
    0.9139    2.1392    0.0000 C   0  0  0  0  0  0  0  0  0  0  0  0
   -1.2296    0.0767    0.0000 C   0  0  0  0  0  0  0  0  0  0  0  0
   -1.2296    2.5517    0.0000 C   0  0  0  0  0  0  0  0  0  0  0  0
    1.6283    0.9017    0.0000 C   0  0  0  0  0  0  0  0  0  0  0  0
   -1.9440   -0.3358    0.0000 C   0  0  0  0  0  0  0  0  0  0  0  0
    1.6283    2.5517    0.0000 C   0  0  0  0  0  0  0  0  0  0  0  0
   -0.5151   -1.1608    0.0000 C   0  0  0  0  0  0  0  0  0  0  0  0
   -1.9440   -1.1608    0.0000 C   0  0  0  0  0  0  0  0  0  0  0  0
   -1.2296   -1.5733    0.0000 C   0  0  0  0  0  0  0  0  0  0  0  0
    2.3428    2.1392    0.0000 C   0  0  0  0  0  0  0  0  0  0  0  0
    2.3428    1.3142    0.0000 C   0  0  0  0  0  0  0  0  0  0  0  0
   -1.9440    2.1392    0.0000 C   0  0  0  0  0  0  0  0  0  0  0  0
   -1.2296    3.3767    0.0000 C   0  0  0  0  0  0  0  0  0  0  0  0
    0.1994   -1.5733    0.0000 C   0  0  0  0  0  0  0  0  0  0  0  0
   -2.6585    2.5517    0.0000 C   0  0  0  0  0  0  0  0  0  0  0  0
    0.9139   -2.8108    0.0000 C   0  0  0  0  0  0  0  0  0  0  0  0
    1.6283   -2.3983    0.0000 C   0  0  0  0  0  0  0  0  0  0  0  0
   -2.6585    3.3767    0.0000 C   0  0  0  0  0  0  0  0  0  0  0  0
   -1.9440    3.7892    0.0000 C   0  0  0  0  0  0  0  0  0  0  0  0
    2.3428   -2.8108    0.0000 C   0  0  0  0  0  0  0  0  0  0  0  0
    2.3428   -3.6358    0.0000 C   0  0  0  0  0  0  0  0  0  0  0  0
    1.6283   -4.0483    0.0000 C   0  0  0  0  0  0  0  0  0  0  0  0
    1.6283   -4.8733    0.0000 C   0  0  0  0  0  0  0  0  0  0  0  0
  1 19  1  0
  1 21  1  0
  2 17  1  0
 22  2  1  6
  3 22  1  0
  3 27  1  0
  4 20  2  0
  5 24  1  0
  6 34  1  0
 36  6  1  1
 25  7  1  1
  8 36  1  0
  8 42  1  0
 28  9  1  6
 29 10  1  1
 11 30  1  0
 12 35  1  0
 37 13  1  6
 14 38  1  0
 40 15  1  6
 41 16  1  1
 17 19  2  0
 17 20  1  0
 18 20  1  0
 18 21  1  0
 18 24  2  0
 19 23  1  0
 21 26  2  0
 22 25  1  0
 23 32  1  0
 23 33  2  0
 24 31  1  0
 25 28  1  0
 26 30  1  0
 27 29  1  0
 27 34  1  6
 28 29  1  0
 30 31  2  0
 32 35  2  0
 33 39  1  0
 35 38  1  0
 36 37  1  0
 37 40  1  0
 38 39  2  0
 40 41  1  0
 41 42  1  0
 42 43  1  6
M  END


> <chembl_id>
CHEMBL226335

> <chembl_pref_name>
RUTIN
