REMARK  Name = 
REMARK  3 active torsions:
REMARK  status: ('A' for Active; 'I' for Inactive)
REMARK    1  A    between atoms: N_1  and  C_16
REMARK    2  A    between atoms: C_14  and  C_22
REMARK    3  A    between atoms: C_16  and  C_23
REMARK                            x       y       z     vdW  Elec       q    Type
REMARK                         _______ _______ _______ _____ _____    ______ ____
ROOT
ATOM      1  N   UNL     1       1.029   1.288   0.000  0.00  0.00    +0.000 N 
ATOM      2  C   UNL     1      -0.558   1.133   0.000  0.00  0.00    +0.000 C 
ATOM      3  C   UNL     1      -0.096   0.496   0.000  0.00  0.00    +0.000 C 
ATOM      4  N   UNL     1      -0.558  -0.154   0.000  0.00  0.00    +0.000 N 
ATOM      5  C   UNL     1       0.562   1.946   0.000  0.00  0.00    +0.000 C 
ATOM      6  C   UNL     1       0.692   0.562   0.000  0.00  0.00    +0.000 C 
ATOM      7  C   UNL     1       0.892   2.650   0.000  0.00  0.00    +0.000 C 
ATOM      8  C   UNL     1       1.817   1.363   0.000  0.00  0.00    +0.000 C 
ATOM      9  C   UNL     1      -0.863   1.883   0.000  0.00  0.00    +0.000 C 
ATOM     10  C   UNL     1       1.929  -0.017   0.000  0.00  0.00    +0.000 C 
ATOM     11  C   UNL     1      -1.333   0.896   0.000  0.00  0.00    +0.000 A 
ATOM     12  C   UNL     1      -1.333   0.096   0.000  0.00  0.00    +0.000 A 
ATOM     13  C   UNL     1      -0.246   1.863   0.000  0.00  0.00    +0.000 C 
ATOM     14  C   UNL     1       2.267   0.708   0.000  0.00  0.00    +0.000 C 
ATOM     15  C   UNL     1       1.137  -0.075   0.000  0.00  0.00    +0.000 C 
ATOM     16  O   UNL     1       2.250   2.021   0.000  0.00  0.00    +0.000 OA
ATOM     17  O   UNL     1      -1.646   1.971   0.000  0.00  0.00    +0.000 OA
ATOM     18  C   UNL     1      -0.300  -0.892   0.000  0.00  0.00    +0.000 C 
ATOM     19  C   UNL     1      -2.058   1.288   0.000  0.00  0.00    +0.000 A 
ATOM     20  C   UNL     1      -2.058  -0.300   0.000  0.00  0.00    +0.000 A 
ATOM     21  C   UNL     1      -2.737   0.896   0.000  0.00  0.00    +0.000 A 
ATOM     22  C   UNL     1      -2.737   0.096   0.000  0.00  0.00    +0.000 A 
ENDROOT
BRANCH  14  23
ATOM     23  C   UNL     1       3.054   0.771   0.000  0.00  0.00    +0.000 C 
ATOM     24  C   UNL     1       3.492   0.125   0.000  0.00  0.00    +0.000 C 
ENDBRANCH  14  23
BRANCH   1  25
ATOM     25  C   UNL     1       1.254   2.158   0.000  0.00  0.00    +0.000 C 
BRANCH  25  26
ATOM     26  C   UNL     1       2.104   2.375   0.000  0.00  0.00    +0.000 C 
ATOM     27  C   UNL     1       2.329   3.250   0.000  0.00  0.00    +0.000 C 
ENDBRANCH  25  26
ENDBRANCH   1  25
TORSDOF 3
