REMARK  Name = 
REMARK  12 active torsions:
REMARK  status: ('A' for Active; 'I' for Inactive)
REMARK    1  A    between atoms: N_1  and  O_10
REMARK    2  A    between atoms: N_2  and  O_11
REMARK    3  A    between atoms: N_3  and  O_12
REMARK    4  A    between atoms: O_10  and  C_13
REMARK    5  A    between atoms: O_11  and  C_14
REMARK    6  A    between atoms: O_12  and  C_15
REMARK    7  A    between atoms: C_13  and  C_17
REMARK    8  A    between atoms: C_14  and  C_18
REMARK    9  A    between atoms: C_15  and  C_19
REMARK   10  A    between atoms: N_16  and  C_17
REMARK   11  A    between atoms: N_16  and  C_18
REMARK   12  A    between atoms: N_16  and  C_19
REMARK                            x       y       z     vdW  Elec       q    Type
REMARK                         _______ _______ _______ _____ _____    ______ ____
ROOT
ATOM      1  N   UNL     1       5.054  -4.629   0.000  0.00  0.00    +0.000 NA
ENDROOT
BRANCH   1   2
ATOM      2  C   UNL     1       5.054  -5.338   0.000  0.00  0.00    +0.000 C 
BRANCH   2   3
ATOM      3  C   UNL     1       4.417  -5.654   0.000  0.00  0.00    +0.000 C 
BRANCH   3   4
ATOM      4  O   UNL     1       4.375  -6.367   0.000  0.00  0.00    +0.000 OA
BRANCH   4   5
ATOM      5  N   UNL     1       4.967  -6.742   0.000  0.00  0.00    +0.000 N 
ATOM      6  O   UNL     1       5.625  -6.487   0.000  0.00  0.00    +0.000 OA
ATOM      7  O   UNL     1       5.017  -7.475   0.000  0.00  0.00    +0.000 OA
ENDBRANCH   4   5
ENDBRANCH   3   4
ENDBRANCH   2   3
ENDBRANCH   1   2
BRANCH   1   8
ATOM      8  C   UNL     1       4.417  -4.312   0.000  0.00  0.00    +0.000 C 
BRANCH   8   9
ATOM      9  C   UNL     1       4.438  -3.600   0.000  0.00  0.00    +0.000 C 
BRANCH   9  10
ATOM     10  O   UNL     1       3.842  -3.204   0.000  0.00  0.00    +0.000 OA
BRANCH  10  11
ATOM     11  N   UNL     1       3.212  -3.525   0.000  0.00  0.00    +0.000 N 
ATOM     12  O   UNL     1       3.129  -4.229   0.000  0.00  0.00    +0.000 OA
ATOM     13  O   UNL     1       2.579  -3.167   0.000  0.00  0.00    +0.000 OA
ENDBRANCH  10  11
ENDBRANCH   9  10
ENDBRANCH   8   9
ENDBRANCH   1   8
BRANCH   1  14
ATOM     14  C   UNL     1       5.679  -4.329   0.000  0.00  0.00    +0.000 C 
BRANCH  14  15
ATOM     15  C   UNL     1       6.267  -4.725   0.000  0.00  0.00    +0.000 C 
BRANCH  15  16
ATOM     16  O   UNL     1       6.917  -4.404   0.000  0.00  0.00    +0.000 OA
BRANCH  16  17
ATOM     17  N   UNL     1       6.954  -3.700   0.000  0.00  0.00    +0.000 N 
ATOM     18  O   UNL     1       6.392  -3.267   0.000  0.00  0.00    +0.000 OA
ATOM     19  O   UNL     1       7.567  -3.325   0.000  0.00  0.00    +0.000 OA
ENDBRANCH  16  17
ENDBRANCH  15  16
ENDBRANCH  14  15
ENDBRANCH   1  14
TORSDOF 12
