REMARK  Name = 
REMARK  13 active torsions:
REMARK  status: ('A' for Active; 'I' for Inactive)
REMARK    1  A    between atoms: C_2  and  C_3
REMARK    2  A    between atoms: C_5  and  C_14
REMARK    3  A    between atoms: C_7  and  C_13
REMARK    4  A    between atoms: C_8  and  C_16
REMARK    5  A    between atoms: C_13  and  C_17
REMARK    6  A    between atoms: C_14  and  C_18
REMARK    7  A    between atoms: C_16  and  C_19
REMARK    8  A    between atoms: C_17  and  C_21
REMARK    9  A    between atoms: C_18  and  C_23
REMARK   10  A    between atoms: C_19  and  C_24
REMARK   11  A    between atoms: C_20  and  C_22
REMARK   12  A    between atoms: C_21  and  C_22
REMARK   13  A    between atoms: C_23  and  C_24
REMARK                            x       y       z     vdW  Elec       q    Type
REMARK                         _______ _______ _______ _____ _____    ______ ____
ROOT
ATOM      1  C   UNL     1       2.104  -4.367   0.000  0.00  0.00    +0.000 C 
ATOM      2  C   UNL     1       2.763  -5.287   0.000  0.00  0.00    +0.000 C 
ATOM      3  C   UNL     1       1.679  -4.929   0.000  0.00  0.00    +0.000 C 
ATOM      4  C   UNL     1       2.763  -4.592   0.000  0.00  0.00    +0.000 C 
ATOM      5  C   UNL     1       2.087  -5.500   0.000  0.00  0.00    +0.000 C 
ATOM      6  O   UNL     1       1.879  -3.692   0.000  0.00  0.00    +0.000 OA
ATOM      7  O   UNL     1       1.863  -6.162   0.000  0.00  0.00    +0.000 OA
ENDROOT
BRANCH   2   8
ATOM      8  C   UNL     1       3.379  -5.650   0.000  0.00  0.00    +0.000 C 
ATOM      9  C   UNL     1       4.004  -5.300   0.000  0.00  0.00    +0.000 C 
BRANCH   9  10
ATOM     10  C   UNL     1       4.612  -5.662   0.000  0.00  0.00    +0.000 C 
ATOM     11  O   UNL     1       4.612  -6.362   0.000  0.00  0.00    +0.000 OA
BRANCH  10  12
ATOM     12  C   UNL     1       5.225  -5.312   0.000  0.00  0.00    +0.000 C 
BRANCH  12  13
ATOM     13  C   UNL     1       5.829  -5.654   0.000  0.00  0.00    +0.000 C 
BRANCH  13  14
ATOM     14  C   UNL     1       6.442  -5.312   0.000  0.00  0.00    +0.000 C 
BRANCH  14  15
ATOM     15  C   UNL     1       7.054  -5.662   0.000  0.00  0.00    +0.000 C 
ATOM     16  C   UNL     1       7.675  -5.312   0.000  0.00  0.00    +0.000 C 
ENDBRANCH  14  15
ENDBRANCH  13  14
ENDBRANCH  12  13
ENDBRANCH  10  12
ENDBRANCH   9  10
ENDBRANCH   2   8
BRANCH   4  17
ATOM     17  C   UNL     1       3.404  -4.229   0.000  0.00  0.00    +0.000 C 
BRANCH  17  18
ATOM     18  C   UNL     1       4.004  -4.592   0.000  0.00  0.00    +0.000 C 
BRANCH  18  19
ATOM     19  C   UNL     1       4.612  -4.242   0.000  0.00  0.00    +0.000 C 
BRANCH  19  20
ATOM     20  C   UNL     1       5.213  -4.604   0.000  0.00  0.00    +0.000 C 
BRANCH  20  21
ATOM     21  C   UNL     1       5.829  -4.250   0.000  0.00  0.00    +0.000 C 
BRANCH  21  22
ATOM     22  C   UNL     1       6.438  -4.617   0.000  0.00  0.00    +0.000 C 
BRANCH  22  23
ATOM     23  C   UNL     1       7.054  -4.267   0.000  0.00  0.00    +0.000 C 
ATOM     24  O   UNL     1       7.054  -3.562   0.000  0.00  0.00    +0.000 OA
ATOM     25  O   UNL     1       7.654  -4.617   0.000  0.00  0.00    +0.000 OA
ENDBRANCH  22  23
ENDBRANCH  21  22
ENDBRANCH  20  21
ENDBRANCH  19  20
ENDBRANCH  18  19
ENDBRANCH  17  18
ENDBRANCH   4  17
TORSDOF 13
