MODEL 1
REMARK VINA RESULT:     -12.3      0.000      0.000
REMARK  Name = 
REMARK  4 active torsions:
REMARK  status: ('A' for Active; 'I' for Inactive)
REMARK    1  A    between atoms: C_6  and  C_16
REMARK    2  A    between atoms: C_9  and  C_11
REMARK    3  A    between atoms: C_13  and  C_19
REMARK    4  A    between atoms: N_14  and  C_22
REMARK                            x       y       z     vdW  Elec       q    Type
REMARK                         _______ _______ _______ _____ _____    ______ ____
ROOT
ATOM      1  C   UNL     1     105.284 145.354 161.004  0.00  0.00    +0.000 A 
ATOM      2  C   UNL     1     105.989 145.364 161.013  0.00  0.00    +0.000 A 
ATOM      3  C   UNL     1     104.916 144.757 160.993  0.00  0.00    +0.000 A 
ATOM      4  C   UNL     1     105.959 144.138 160.999  0.00  0.00    +0.000 A 
ATOM      5  C   UNL     1     105.253 144.128 160.990  0.00  0.00    +0.000 A 
ATOM      6  C   UNL     1     106.330 144.732 161.010  0.00  0.00    +0.000 A 
ENDROOT
BRANCH   1  12
ATOM      7  N   UNL     1     104.798 146.301 160.378  0.00  0.00    +0.000 N 
ATOM      8  C   UNL     1     104.318 147.277 159.201  0.00  0.00    +0.000 A 
ATOM      9  C   UNL     1     104.623 146.732 158.874  0.00  0.00    +0.000 A 
ATOM     10  C   UNL     1     104.247 147.358 159.915  0.00  0.00    +0.000 A 
ATOM     11  N   UNL     1     104.571 146.881 158.166  0.00  0.00    +0.000 NA
ATOM     12  C   UNL     1     104.934 146.004 161.007  0.00  0.00    +0.000 C 
ATOM     13  C   UNL     1     104.457 146.931 160.432  0.00  0.00    +0.000 A 
ATOM     14  N   UNL     1     104.086 147.741 158.738  0.00  0.00    +0.000 NA
ATOM     15  C   UNL     1     104.236 147.507 158.094  0.00  0.00    +0.000 A 
ATOM     16  C   UNL     1     105.003 145.960 159.803  0.00  0.00    +0.000 C 
ATOM     17  C   UNL     1     104.926 146.152 159.128  0.00  0.00    +0.000 C 
ATOM     18  O   UNL     1     104.754 146.296 161.613  0.00  0.00    +0.000 OA
ATOM     19  C   UNL     1     103.912 147.969 160.063  0.00  0.00    +0.000 A 
ATOM     20  C   UNL     1     104.337 147.106 161.111  0.00  0.00    +0.000 A 
ATOM     21  C   UNL     1     104.102 147.802 157.463  0.00  0.00    +0.000 C 
ATOM     22  C   UNL     1     103.792 148.145 160.743  0.00  0.00    +0.000 A 
ATOM     23  C   UNL     1     104.005 147.711 161.264  0.00  0.00    +0.000 A 
ENDBRANCH   1  12
BRANCH   4  25
ATOM     24  C   UNL     1     106.488 143.226 161.624  0.00  0.00    +0.000 C 
ATOM     25  N   UNL     1     106.308 143.503 160.996  0.00  0.00    +0.000 NA
ATOM     26  O   UNL     1     106.328 143.565 162.220  0.00  0.00    +0.000 OA
BRANCH  24  27
ATOM     27  C   UNL     1     106.830 142.605 161.646  0.00  0.00    +0.000 A 
ATOM     28  C   UNL     1     107.056 142.354 162.270  0.00  0.00    +0.000 A 
ATOM     29  C   UNL     1     106.944 142.241 161.054  0.00  0.00    +0.000 A 
ATOM     30  C   UNL     1     107.398 141.733 162.291  0.00  0.00    +0.000 A 
ATOM     31  C   UNL     1     107.286 141.619 161.075  0.00  0.00    +0.000 A 
ATOM     32  C   UNL     1     107.512 141.369 161.700  0.00  0.00    +0.000 A 
BRANCH  28  33
ATOM     33  C   UNL     1     106.942 142.718 162.862  0.00  0.00    +0.000 A 
ATOM     34  C   UNL     1     107.414 143.198 163.083  0.00  0.00    +0.000 A 
ATOM     35  C   UNL     1     106.354 142.602 163.236  0.00  0.00    +0.000 A 
ATOM     36  C   UNL     1     106.239 142.971 163.835  0.00  0.00    +0.000 A 
ATOM     37  C   UNL     1     107.299 143.563 163.676  0.00  0.00    +0.000 A 
ATOM     38  C   UNL     1     106.712 143.452 164.056  0.00  0.00    +0.000 A 
ENDBRANCH  28  33
ENDBRANCH  24  27
ENDBRANCH   4  25
TORSDOF 4
ENDMDL
MODEL 2
REMARK VINA RESULT:     -11.7      5.001      7.776
REMARK  Name = 
REMARK  4 active torsions:
REMARK  status: ('A' for Active; 'I' for Inactive)
REMARK    1  A    between atoms: C_6  and  C_16
REMARK    2  A    between atoms: C_9  and  C_11
REMARK    3  A    between atoms: C_13  and  C_19
REMARK    4  A    between atoms: N_14  and  C_22
REMARK                            x       y       z     vdW  Elec       q    Type
REMARK                         _______ _______ _______ _____ _____    ______ ____
ROOT
ATOM      1  C   UNL     1     105.056 143.520 154.081  0.00  0.00    +0.000 A 
ATOM      2  C   UNL     1     104.515 143.972 154.071  0.00  0.00    +0.000 A 
ATOM      3  C   UNL     1     105.720 143.725 153.990  0.00  0.00    +0.000 A 
ATOM      4  C   UNL     1     105.330 144.868 153.872  0.00  0.00    +0.000 A 
ATOM      5  C   UNL     1     105.871 144.415 153.882  0.00  0.00    +0.000 A 
ATOM      6  C   UNL     1     104.664 144.666 153.963  0.00  0.00    +0.000 A 
ENDROOT
BRANCH   1  12
ATOM      7  N   UNL     1     104.842 142.590 154.864  0.00  0.00    +0.000 N 
ATOM      8  C   UNL     1     104.631 141.724 156.196  0.00  0.00    +0.000 A 
ATOM      9  C   UNL     1     104.767 142.378 156.423  0.00  0.00    +0.000 A 
ATOM     10  C   UNL     1     104.599 141.512 155.507  0.00  0.00    +0.000 A 
ATOM     11  N   UNL     1     104.744 142.338 157.146  0.00  0.00    +0.000 NA
ATOM     12  C   UNL     1     104.902 142.806 154.192  0.00  0.00    +0.000 C 
ATOM     13  C   UNL     1     104.692 141.890 154.923  0.00  0.00    +0.000 A 
ATOM     14  N   UNL     1     104.529 141.295 156.735  0.00  0.00    +0.000 NA
ATOM     15  C   UNL     1     104.596 141.663 157.328  0.00  0.00    +0.000 A 
ATOM     16  C   UNL     1     104.933 143.063 155.371  0.00  0.00    +0.000 C 
ATOM     17  C   UNL     1     104.900 142.970 156.071  0.00  0.00    +0.000 C 
ATOM     18  O   UNL     1     104.821 142.381 153.647  0.00  0.00    +0.000 OA
ATOM     19  C   UNL     1     104.452 140.815 155.469  0.00  0.00    +0.000 A 
ATOM     20  C   UNL     1     104.638 141.580 154.284  0.00  0.00    +0.000 A 
ATOM     21  C   UNL     1     104.538 141.449 158.002  0.00  0.00    +0.000 C 
ATOM     22  C   UNL     1     104.398 140.504 154.830  0.00  0.00    +0.000 A 
ATOM     23  C   UNL     1     104.491 140.890 154.240  0.00  0.00    +0.000 A 
ENDBRANCH   1  12
BRANCH   4  25
ATOM     24  C   UNL     1     105.614 145.966 154.334  0.00  0.00    +0.000 C 
ATOM     25  N   UNL     1     105.475 145.569 153.763  0.00  0.00    +0.000 NA
ATOM     26  O   UNL     1     105.608 145.679 154.977  0.00  0.00    +0.000 OA
BRANCH  24  27
ATOM     27  C   UNL     1     105.759 146.655 154.252  0.00  0.00    +0.000 A 
ATOM     28  C   UNL     1     105.955 147.040 154.815  0.00  0.00    +0.000 A 
ATOM     29  C   UNL     1     105.711 146.955 153.616  0.00  0.00    +0.000 A 
ATOM     30  C   UNL     1     106.100 147.729 154.733  0.00  0.00    +0.000 A 
ATOM     31  C   UNL     1     105.856 147.646 153.533  0.00  0.00    +0.000 A 
ATOM     32  C   UNL     1     106.051 148.029 154.098  0.00  0.00    +0.000 A 
BRANCH  28  33
ATOM     33  C   UNL     1     106.003 146.740 155.450  0.00  0.00    +0.000 A 
ATOM     34  C   UNL     1     105.441 146.722 155.882  0.00  0.00    +0.000 A 
ATOM     35  C   UNL     1     106.616 146.457 155.657  0.00  0.00    +0.000 A 
ATOM     36  C   UNL     1     106.665 146.153 156.300  0.00  0.00    +0.000 A 
ATOM     37  C   UNL     1     105.490 146.421 156.518  0.00  0.00    +0.000 A 
ATOM     38  C   UNL     1     106.102 146.135 156.732  0.00  0.00    +0.000 A 
ENDBRANCH  28  33
ENDBRANCH  24  27
ENDBRANCH   4  25
TORSDOF 4
ENDMDL
MODEL 3
REMARK VINA RESULT:     -11.4     29.293     30.564
REMARK  Name = 
REMARK  4 active torsions:
REMARK  status: ('A' for Active; 'I' for Inactive)
REMARK    1  A    between atoms: C_6  and  C_16
REMARK    2  A    between atoms: C_9  and  C_11
REMARK    3  A    between atoms: C_13  and  C_19
REMARK    4  A    between atoms: N_14  and  C_22
REMARK                            x       y       z     vdW  Elec       q    Type
REMARK                         _______ _______ _______ _____ _____    ______ ____
ROOT
ATOM      1  C   UNL     1     128.899 139.931 142.165  0.00  0.00    +0.000 A 
ATOM      2  C   UNL     1     129.114 139.313 141.904  0.00  0.00    +0.000 A 
ATOM      3  C   UNL     1     128.249 140.033 142.407  0.00  0.00    +0.000 A 
ATOM      4  C   UNL     1     127.989 138.880 142.133  0.00  0.00    +0.000 A 
ATOM      5  C   UNL     1     127.774 139.499 142.394  0.00  0.00    +0.000 A 
ATOM      6  C   UNL     1     128.639 138.775 141.890  0.00  0.00    +0.000 A 
ENDROOT
BRANCH   1  12
ATOM      7  N   UNL     1     129.782 140.553 142.763  0.00  0.00    +0.000 N 
ATOM      8  C   UNL     1     130.837 141.039 143.869  0.00  0.00    +0.000 A 
ATOM      9  C   UNL     1     130.514 140.481 144.156  0.00  0.00    +0.000 A 
ATOM     10  C   UNL     1     130.705 141.315 143.215  0.00  0.00    +0.000 A 
ATOM     11  N   UNL     1     130.817 140.401 144.810  0.00  0.00    +0.000 NA
ATOM     12  C   UNL     1     129.389 140.484 142.179  0.00  0.00    +0.000 C 
ATOM     13  C   UNL     1     130.243 141.103 142.730  0.00  0.00    +0.000 A 
ATOM     14  N   UNL     1     131.312 141.297 144.306  0.00  0.00    +0.000 NA
ATOM     15  C   UNL     1     131.310 140.912 144.892  0.00  0.00    +0.000 A 
ATOM     16  C   UNL     1     129.681 140.096 143.283  0.00  0.00    +0.000 C 
ATOM     17  C   UNL     1     130.008 140.063 143.909  0.00  0.00    +0.000 C 
ATOM     18  O   UNL     1     129.445 140.908 141.630  0.00  0.00    +0.000 OA
ATOM     19  C   UNL     1     131.126 141.877 143.095  0.00  0.00    +0.000 A 
ATOM     20  C   UNL     1     130.191 141.449 142.110  0.00  0.00    +0.000 A 
ATOM     21  C   UNL     1     131.702 140.978 145.478  0.00  0.00    +0.000 C 
ATOM     22  C   UNL     1     131.075 142.225 142.474  0.00  0.00    +0.000 A 
ATOM     23  C   UNL     1     130.607 142.008 141.985  0.00  0.00    +0.000 A 
ENDBRANCH   1  12
BRANCH   4  25
ATOM     24  C   UNL     1     127.087 138.289 141.552  0.00  0.00    +0.000 C 
ATOM     25  N   UNL     1     127.513 138.334 142.117  0.00  0.00    +0.000 NA
ATOM     26  O   UNL     1     127.134 138.761 141.032  0.00  0.00    +0.000 OA
BRANCH  24  27
ATOM     27  C   UNL     1     126.613 137.762 141.515  0.00  0.00    +0.000 A 
ATOM     28  C   UNL     1     126.274 137.642 140.903  0.00  0.00    +0.000 A 
ATOM     29  C   UNL     1     126.480 137.363 142.079  0.00  0.00    +0.000 A 
ATOM     30  C   UNL     1     125.800 137.116 140.866  0.00  0.00    +0.000 A 
ATOM     31  C   UNL     1     126.005 136.836 142.043  0.00  0.00    +0.000 A 
ATOM     32  C   UNL     1     125.667 136.717 141.431  0.00  0.00    +0.000 A 
BRANCH  28  33
ATOM     33  C   UNL     1     126.406 138.041 140.338  0.00  0.00    +0.000 A 
ATOM     34  C   UNL     1     126.046 138.642 140.232  0.00  0.00    +0.000 A 
ATOM     35  C   UNL     1     126.901 137.840 139.877  0.00  0.00    +0.000 A 
ATOM     36  C   UNL     1     127.036 138.245 139.305  0.00  0.00    +0.000 A 
ATOM     37  C   UNL     1     126.179 139.041 139.667  0.00  0.00    +0.000 A 
ATOM     38  C   UNL     1     126.675 138.846 139.199  0.00  0.00    +0.000 A 
ENDBRANCH  28  33
ENDBRANCH  24  27
ENDBRANCH   4  25
TORSDOF 4
ENDMDL
MODEL 4
REMARK VINA RESULT:     -11.3     34.589     37.203
REMARK  Name = 
REMARK  4 active torsions:
REMARK  status: ('A' for Active; 'I' for Inactive)
REMARK    1  A    between atoms: C_6  and  C_16
REMARK    2  A    between atoms: C_9  and  C_11
REMARK    3  A    between atoms: C_13  and  C_19
REMARK    4  A    between atoms: N_14  and  C_22
REMARK                            x       y       z     vdW  Elec       q    Type
REMARK                         _______ _______ _______ _____ _____    ______ ____
ROOT
ATOM      1  C   UNL     1     135.042 126.970 147.133  0.00  0.00    +0.000 A 
ATOM      2  C   UNL     1     135.294 126.607 147.682  0.00  0.00    +0.000 A 
ATOM      3  C   UNL     1     134.454 126.787 146.798  0.00  0.00    +0.000 A 
ATOM      4  C   UNL     1     134.338 125.848 147.558  0.00  0.00    +0.000 A 
ATOM      5  C   UNL     1     134.086 126.212 147.008  0.00  0.00    +0.000 A 
ATOM      6  C   UNL     1     134.925 126.029 147.895  0.00  0.00    +0.000 A 
ENDROOT
BRANCH   1  12
ATOM      7  N   UNL     1     135.167 128.198 147.102  0.00  0.00    +0.000 N 
ATOM      8  C   UNL     1     134.933 129.770 147.313  0.00  0.00    +0.000 A 
ATOM      9  C   UNL     1     134.394 129.459 147.645  0.00  0.00    +0.000 A 
ATOM     10  C   UNL     1     135.466 129.434 146.961  0.00  0.00    +0.000 A 
ATOM     11  N   UNL     1     133.999 130.002 147.918  0.00  0.00    +0.000 NA
ATOM     12  C   UNL     1     135.422 127.565 146.915  0.00  0.00    +0.000 C 
ATOM     13  C   UNL     1     135.569 128.745 146.868  0.00  0.00    +0.000 A 
ATOM     14  N   UNL     1     134.888 130.462 147.370  0.00  0.00    +0.000 NA
ATOM     15  C   UNL     1     134.314 130.618 147.742  0.00  0.00    +0.000 A 
ATOM     16  C   UNL     1     134.577 128.217 147.478  0.00  0.00    +0.000 C 
ATOM     17  C   UNL     1     134.230 128.781 147.722  0.00  0.00    +0.000 C 
ATOM     18  O   UNL     1     136.003 127.484 146.541  0.00  0.00    +0.000 OA
ATOM     19  C   UNL     1     135.922 129.909 146.689  0.00  0.00    +0.000 A 
ATOM     20  C   UNL     1     136.133 128.515 146.499  0.00  0.00    +0.000 A 
ATOM     21  C   UNL     1     134.056 131.251 147.931  0.00  0.00    +0.000 C 
ATOM     22  C   UNL     1     136.487 129.679 146.320  0.00  0.00    +0.000 A 
ATOM     23  C   UNL     1     136.589 128.982 146.227  0.00  0.00    +0.000 A 
ENDBRANCH   1  12
BRANCH   4  25
ATOM     24  C   UNL     1     134.188 124.632 147.539  0.00  0.00    +0.000 C 
ATOM     25  N   UNL     1     133.969 125.264 147.776  0.00  0.00    +0.000 NA
ATOM     26  O   UNL     1     134.743 124.587 147.108  0.00  0.00    +0.000 OA
BRANCH  24  27
ATOM     27  C   UNL     1     133.842 124.046 147.740  0.00  0.00    +0.000 A 
ATOM     28  C   UNL     1     133.899 123.457 147.348  0.00  0.00    +0.000 A 
ATOM     29  C   UNL     1     133.447 124.049 148.322  0.00  0.00    +0.000 A 
ATOM     30  C   UNL     1     133.553 122.872 147.549  0.00  0.00    +0.000 A 
ATOM     31  C   UNL     1     133.100 123.463 148.524  0.00  0.00    +0.000 A 
ATOM     32  C   UNL     1     133.157 122.874 148.131  0.00  0.00    +0.000 A 
BRANCH  28  33
ATOM     33  C   UNL     1     134.294 123.454 146.766  0.00  0.00    +0.000 A 
ATOM     34  C   UNL     1     134.008 123.618 146.138  0.00  0.00    +0.000 A 
ATOM     35  C   UNL     1     134.979 123.287 146.808  0.00  0.00    +0.000 A 
ATOM     36  C   UNL     1     135.379 123.284 146.218  0.00  0.00    +0.000 A 
ATOM     37  C   UNL     1     134.404 123.616 145.555  0.00  0.00    +0.000 A 
ATOM     38  C   UNL     1     135.092 123.448 145.590  0.00  0.00    +0.000 A 
ENDBRANCH  28  33
ENDBRANCH  24  27
ENDBRANCH   4  25
TORSDOF 4
ENDMDL
MODEL 5
REMARK VINA RESULT:     -11.2      5.057      6.761
REMARK  Name = 
REMARK  4 active torsions:
REMARK  status: ('A' for Active; 'I' for Inactive)
REMARK    1  A    between atoms: C_6  and  C_16
REMARK    2  A    between atoms: C_9  and  C_11
REMARK    3  A    between atoms: C_13  and  C_19
REMARK    4  A    between atoms: N_14  and  C_22
REMARK                            x       y       z     vdW  Elec       q    Type
REMARK                         _______ _______ _______ _____ _____    ______ ____
ROOT
ATOM      1  C   UNL     1     105.238 144.808 153.551  0.00  0.00    +0.000 A 
ATOM      2  C   UNL     1     105.800 144.412 153.709  0.00  0.00    +0.000 A 
ATOM      3  C   UNL     1     104.593 144.541 153.496  0.00  0.00    +0.000 A 
ATOM      4  C   UNL     1     105.046 143.446 153.758  0.00  0.00    +0.000 A 
ATOM      5  C   UNL     1     104.483 143.842 153.601  0.00  0.00    +0.000 A 
ATOM      6  C   UNL     1     105.692 143.710 153.814  0.00  0.00    +0.000 A 
ENDROOT
BRANCH   1  12
ATOM      7  N   UNL     1     105.285 145.955 154.006  0.00  0.00    +0.000 N 
ATOM      8  C   UNL     1     105.235 147.217 154.992  0.00  0.00    +0.000 A 
ATOM      9  C   UNL     1     105.082 146.662 155.398  0.00  0.00    +0.000 A 
ATOM     10  C   UNL     1     105.380 147.199 154.285  0.00  0.00    +0.000 A 
ATOM     11  N   UNL     1     104.977 146.934 156.062  0.00  0.00    +0.000 NA
ATOM     12  C   UNL     1     105.350 145.530 153.443  0.00  0.00    +0.000 C 
ATOM     13  C   UNL     1     105.402 146.646 153.852  0.00  0.00    +0.000 A 
ATOM     14  N   UNL     1     105.229 147.803 155.368  0.00  0.00    +0.000 NA
ATOM     15  C   UNL     1     105.070 147.641 156.031  0.00  0.00    +0.000 A 
ATOM     16  C   UNL     1     105.121 145.663 154.620  0.00  0.00    +0.000 C 
ATOM     17  C   UNL     1     105.029 145.979 155.246  0.00  0.00    +0.000 C 
ATOM     18  O   UNL     1     105.511 145.763 152.807  0.00  0.00    +0.000 OA
ATOM     19  C   UNL     1     105.512 147.856 154.042  0.00  0.00    +0.000 A 
ATOM     20  C   UNL     1     105.557 146.738 153.163  0.00  0.00    +0.000 A 
ATOM     21  C   UNL     1     105.005 148.064 156.596  0.00  0.00    +0.000 C 
ATOM     22  C   UNL     1     105.667 147.949 153.353  0.00  0.00    +0.000 A 
ATOM     23  C   UNL     1     105.689 147.387 152.917  0.00  0.00    +0.000 A 
ENDBRANCH   1  12
BRANCH   4  25
ATOM     24  C   UNL     1     104.817 142.522 154.530  0.00  0.00    +0.000 C 
ATOM     25  N   UNL     1     104.942 142.737 153.865  0.00  0.00    +0.000 NA
ATOM     26  O   UNL     1     104.797 142.989 155.057  0.00  0.00    +0.000 OA
BRANCH  24  27
ATOM     27  C   UNL     1     104.713 141.833 154.659  0.00  0.00    +0.000 A 
ATOM     28  C   UNL     1     104.593 141.617 155.325  0.00  0.00    +0.000 A 
ATOM     29  C   UNL     1     104.728 141.366 154.132  0.00  0.00    +0.000 A 
ATOM     30  C   UNL     1     104.488 140.928 155.454  0.00  0.00    +0.000 A 
ATOM     31  C   UNL     1     104.623 140.675 154.261  0.00  0.00    +0.000 A 
ATOM     32  C   UNL     1     104.503 140.461 154.927  0.00  0.00    +0.000 A 
BRANCH  28  33
ATOM     33  C   UNL     1     104.578 142.083 155.852  0.00  0.00    +0.000 A 
ATOM     34  C   UNL     1     105.171 142.243 156.206  0.00  0.00    +0.000 A 
ATOM     35  C   UNL     1     103.968 142.394 156.027  0.00  0.00    +0.000 A 
ATOM     36  C   UNL     1     103.953 142.866 156.561  0.00  0.00    +0.000 A 
ATOM     37  C   UNL     1     105.156 142.710 156.734  0.00  0.00    +0.000 A 
ATOM     38  C   UNL     1     104.547 143.025 156.916  0.00  0.00    +0.000 A 
ENDBRANCH  28  33
ENDBRANCH  24  27
ENDBRANCH   4  25
TORSDOF 4
ENDMDL
MODEL 6
REMARK VINA RESULT:     -11.2     33.339     36.803
REMARK  Name = 
REMARK  4 active torsions:
REMARK  status: ('A' for Active; 'I' for Inactive)
REMARK    1  A    between atoms: C_6  and  C_16
REMARK    2  A    between atoms: C_9  and  C_11
REMARK    3  A    between atoms: C_13  and  C_19
REMARK    4  A    between atoms: N_14  and  C_22
REMARK                            x       y       z     vdW  Elec       q    Type
REMARK                         _______ _______ _______ _____ _____    ______ ____
ROOT
ATOM      1  C   UNL     1     110.380 117.014 184.355  0.00  0.00    +0.000 A 
ATOM      2  C   UNL     1     109.891 117.325 184.757  0.00  0.00    +0.000 A 
ATOM      3  C   UNL     1     110.822 117.377 183.950  0.00  0.00    +0.000 A 
ATOM      4  C   UNL     1     110.299 118.402 184.335  0.00  0.00    +0.000 A 
ATOM      5  C   UNL     1     110.788 118.090 183.933  0.00  0.00    +0.000 A 
ATOM      6  C   UNL     1     109.856 118.042 184.741  0.00  0.00    +0.000 A 
ENDROOT
BRANCH   1  12
ATOM      7  N   UNL     1     110.904 115.986 184.795  0.00  0.00    +0.000 N 
ATOM      8  C   UNL     1     111.843 114.966 185.598  0.00  0.00    +0.000 A 
ATOM      9  C   UNL     1     112.057 115.607 185.798  0.00  0.00    +0.000 A 
ATOM     10  C   UNL     1     111.313 114.822 185.131  0.00  0.00    +0.000 A 
ATOM     11  N   UNL     1     112.596 115.491 186.269  0.00  0.00    +0.000 NA
ATOM     12  C   UNL     1     110.415 116.276 184.372  0.00  0.00    +0.000 C 
ATOM     13  C   UNL     1     110.901 115.268 184.778  0.00  0.00    +0.000 A 
ATOM     14  N   UNL     1     112.218 114.473 185.917  0.00  0.00    +0.000 NA
ATOM     15  C   UNL     1     112.687 114.786 186.335  0.00  0.00    +0.000 A 
ATOM     16  C   UNL     1     111.316 116.414 185.164  0.00  0.00    +0.000 C 
ATOM     17  C   UNL     1     111.833 116.246 185.614  0.00  0.00    +0.000 C 
ATOM     18  O   UNL     1     109.979 115.901 183.982  0.00  0.00    +0.000 OA
ATOM     19  C   UNL     1     111.238 114.118 185.051  0.00  0.00    +0.000 A 
ATOM     20  C   UNL     1     110.401 115.020 184.335  0.00  0.00    +0.000 A 
ATOM     21  C   UNL     1     113.177 114.498 186.759  0.00  0.00    +0.000 C 
ATOM     22  C   UNL     1     110.738 113.868 184.608  0.00  0.00    +0.000 A 
ATOM     23  C   UNL     1     110.322 114.322 184.252  0.00  0.00    +0.000 A 
ENDBRANCH   1  12
BRANCH   4  25
ATOM     24  C   UNL     1     109.835 119.421 183.838  0.00  0.00    +0.000 C 
ATOM     25  N   UNL     1     110.260 119.125 184.323  0.00  0.00    +0.000 NA
ATOM     26  O   UNL     1     109.470 119.016 183.391  0.00  0.00    +0.000 OA
BRANCH  24  27
ATOM     27  C   UNL     1     109.780 120.127 183.807  0.00  0.00    +0.000 A 
ATOM     28  C   UNL     1     109.375 120.424 183.305  0.00  0.00    +0.000 A 
ATOM     29  C   UNL     1     110.125 120.531 184.269  0.00  0.00    +0.000 A 
ATOM     30  C   UNL     1     109.320 121.130 183.274  0.00  0.00    +0.000 A 
ATOM     31  C   UNL     1     110.071 121.238 184.238  0.00  0.00    +0.000 A 
ATOM     32  C   UNL     1     109.665 121.534 183.737  0.00  0.00    +0.000 A 
BRANCH  28  33
ATOM     33  C   UNL     1     109.030 120.020 182.843  0.00  0.00    +0.000 A 
ATOM     34  C   UNL     1     109.335 119.837 182.230  0.00  0.00    +0.000 A 
ATOM     35  C   UNL     1     108.377 119.797 182.992  0.00  0.00    +0.000 A 
ATOM     36  C   UNL     1     108.028 119.388 182.523  0.00  0.00    +0.000 A 
ATOM     37  C   UNL     1     108.990 119.433 181.767  0.00  0.00    +0.000 A 
ATOM     38  C   UNL     1     108.334 119.205 181.910  0.00  0.00    +0.000 A 
ENDBRANCH  28  33
ENDBRANCH  24  27
ENDBRANCH   4  25
TORSDOF 4
ENDMDL
MODEL 7
REMARK VINA RESULT:     -11.1     37.726     38.635
REMARK  Name = 
REMARK  4 active torsions:
REMARK  status: ('A' for Active; 'I' for Inactive)
REMARK    1  A    between atoms: C_6  and  C_16
REMARK    2  A    between atoms: C_9  and  C_11
REMARK    3  A    between atoms: C_13  and  C_19
REMARK    4  A    between atoms: N_14  and  C_22
REMARK                            x       y       z     vdW  Elec       q    Type
REMARK                         _______ _______ _______ _____ _____    ______ ____
ROOT
ATOM      1  C   UNL     1     135.345 125.880 145.496  0.00  0.00    +0.000 A 
ATOM      2  C   UNL     1     135.815 125.410 145.262  0.00  0.00    +0.000 A 
ATOM      3  C   UNL     1     134.654 125.767 145.472  0.00  0.00    +0.000 A 
ATOM      4  C   UNL     1     134.870 124.684 144.969  0.00  0.00    +0.000 A 
ATOM      5  C   UNL     1     134.400 125.156 145.204  0.00  0.00    +0.000 A 
ATOM      6  C   UNL     1     135.562 124.795 144.991  0.00  0.00    +0.000 A 
ENDROOT
BRANCH   1  12
ATOM      7  N   UNL     1     135.541 127.094 145.373  0.00  0.00    +0.000 N 
ATOM      8  C   UNL     1     135.585 128.590 144.801  0.00  0.00    +0.000 A 
ATOM      9  C   UNL     1     135.271 128.211 144.297  0.00  0.00    +0.000 A 
ATOM     10  C   UNL     1     135.827 128.338 145.433  0.00  0.00    +0.000 A 
ATOM     11  N   UNL     1     135.122 128.683 143.767  0.00  0.00    +0.000 NA
ATOM     12  C   UNL     1     135.607 126.513 145.774  0.00  0.00    +0.000 C 
ATOM     13  C   UNL     1     135.808 127.683 145.684  0.00  0.00    +0.000 A 
ATOM     14  N   UNL     1     135.635 129.258 144.610  0.00  0.00    +0.000 NA
ATOM     15  C   UNL     1     135.352 129.328 143.972  0.00  0.00    +0.000 A 
ATOM     16  C   UNL     1     135.235 127.028 144.747  0.00  0.00    +0.000 C 
ATOM     17  C   UNL     1     135.113 127.528 144.263  0.00  0.00    +0.000 C 
ATOM     18  O   UNL     1     135.902 126.517 146.404  0.00  0.00    +0.000 OA
ATOM     19  C   UNL     1     136.116 128.866 145.815  0.00  0.00    +0.000 A 
ATOM     20  C   UNL     1     136.079 127.538 146.327  0.00  0.00    +0.000 A 
ATOM     21  C   UNL     1     135.285 129.908 143.569  0.00  0.00    +0.000 C 
ATOM     22  C   UNL     1     136.387 128.722 146.459  0.00  0.00    +0.000 A 
ATOM     23  C   UNL     1     136.366 128.058 146.711  0.00  0.00    +0.000 A 
ENDBRANCH   1  12
BRANCH   4  25
ATOM     24  C   UNL     1     134.438 123.552 145.155  0.00  0.00    +0.000 C 
ATOM     25  N   UNL     1     134.620 124.062 144.695  0.00  0.00    +0.000 NA
ATOM     26  O   UNL     1     134.504 123.659 145.848  0.00  0.00    +0.000 OA
BRANCH  24  27
ATOM     27  C   UNL     1     134.191 122.935 144.910  0.00  0.00    +0.000 A 
ATOM     28  C   UNL     1     134.048 122.411 145.367  0.00  0.00    +0.000 A 
ATOM     29  C   UNL     1     134.086 122.842 144.220  0.00  0.00    +0.000 A 
ATOM     30  C   UNL     1     133.801 121.793 145.122  0.00  0.00    +0.000 A 
ATOM     31  C   UNL     1     133.838 122.224 143.974  0.00  0.00    +0.000 A 
ATOM     32  C   UNL     1     133.696 121.701 144.432  0.00  0.00    +0.000 A 
BRANCH  28  33
ATOM     33  C   UNL     1     134.153 122.503 146.057  0.00  0.00    +0.000 A 
ATOM     34  C   UNL     1     134.782 122.353 146.347  0.00  0.00    +0.000 A 
ATOM     35  C   UNL     1     133.627 122.747 146.461  0.00  0.00    +0.000 A 
ATOM     36  C   UNL     1     133.733 122.840 147.160  0.00  0.00    +0.000 A 
ATOM     37  C   UNL     1     134.886 122.446 147.039  0.00  0.00    +0.000 A 
ATOM     38  C   UNL     1     134.363 122.690 147.450  0.00  0.00    +0.000 A 
ENDBRANCH  28  33
ENDBRANCH  24  27
ENDBRANCH   4  25
TORSDOF 4
ENDMDL
MODEL 8
REMARK VINA RESULT:     -10.9     67.297     68.675
REMARK  Name = 
REMARK  4 active torsions:
REMARK  status: ('A' for Active; 'I' for Inactive)
REMARK    1  A    between atoms: C_6  and  C_16
REMARK    2  A    between atoms: C_9  and  C_11
REMARK    3  A    between atoms: C_13  and  C_19
REMARK    4  A    between atoms: N_14  and  C_22
REMARK                            x       y       z     vdW  Elec       q    Type
REMARK                         _______ _______ _______ _____ _____    ______ ____
ROOT
ATOM      1  C   UNL     1     146.200  99.100 192.284  0.00  0.00    +0.000 A 
ATOM      2  C   UNL     1     146.211  99.269 191.600  0.00  0.00    +0.000 A 
ATOM      3  C   UNL     1     146.466  99.517 192.780  0.00  0.00    +0.000 A 
ATOM      4  C   UNL     1     146.776 100.311 191.917  0.00  0.00    +0.000 A 
ATOM      5  C   UNL     1     146.764 100.141 192.602  0.00  0.00    +0.000 A 
ATOM      6  C   UNL     1     146.510  99.896 191.418  0.00  0.00    +0.000 A 
ENDROOT
BRANCH   1  12
ATOM      7  N   UNL     1     145.187  98.439 192.532  0.00  0.00    +0.000 N 
ATOM      8  C   UNL     1     143.665  97.994 192.769  0.00  0.00    +0.000 A 
ATOM      9  C   UNL     1     143.631  98.678 192.601  0.00  0.00    +0.000 A 
ATOM     10  C   UNL     1     144.266  97.598 192.818  0.00  0.00    +0.000 A 
ATOM     11  N   UNL     1     142.926  98.844 192.618  0.00  0.00    +0.000 NA
ATOM     12  C   UNL     1     145.892  98.454 192.470  0.00  0.00    +0.000 C 
ATOM     13  C   UNL     1     144.934  97.792 192.714  0.00  0.00    +0.000 A 
ATOM     14  N   UNL     1     143.028  97.739 192.885  0.00  0.00    +0.000 NA
ATOM     15  C   UNL     1     142.562  98.256 192.795  0.00  0.00    +0.000 A 
ATOM     16  C   UNL     1     144.833  99.031 192.414  0.00  0.00    +0.000 C 
ATOM     17  C   UNL     1     144.136  99.140 192.445  0.00  0.00    +0.000 C 
ATOM     18  O   UNL     1     146.296  97.897 192.576  0.00  0.00    +0.000 OA
ATOM     19  C   UNL     1     144.107  96.927 192.998  0.00  0.00    +0.000 A 
ATOM     20  C   UNL     1     145.460  97.318 192.789  0.00  0.00    +0.000 A 
ATOM     21  C   UNL     1     141.856  98.243 192.856  0.00  0.00    +0.000 C 
ATOM     22  C   UNL     1     144.633  96.451 193.073  0.00  0.00    +0.000 A 
ATOM     23  C   UNL     1     145.307  96.651 192.968  0.00  0.00    +0.000 A 
ENDBRANCH   1  12
BRANCH   4  25
ATOM     24  C   UNL     1     147.777 100.950 191.614  0.00  0.00    +0.000 C 
ATOM     25  N   UNL     1     147.076 100.943 191.729  0.00  0.00    +0.000 NA
ATOM     26  O   UNL     1     148.154 100.360 191.685  0.00  0.00    +0.000 OA
BRANCH  24  27
ATOM     27  C   UNL     1     148.093 101.557 191.429  0.00  0.00    +0.000 A 
ATOM     28  C   UNL     1     148.752 101.541 191.166  0.00  0.00    +0.000 A 
ATOM     29  C   UNL     1     147.756 102.171 191.506  0.00  0.00    +0.000 A 
ATOM     30  C   UNL     1     149.068 102.148 190.980  0.00  0.00    +0.000 A 
ATOM     31  C   UNL     1     148.072 102.779 191.320  0.00  0.00    +0.000 A 
ATOM     32  C   UNL     1     148.731 102.761 191.057  0.00  0.00    +0.000 A 
BRANCH  28  33
ATOM     33  C   UNL     1     149.088 100.927 191.089  0.00  0.00    +0.000 A 
ATOM     34  C   UNL     1     149.475 100.662 191.621  0.00  0.00    +0.000 A 
ATOM     35  C   UNL     1     149.039 100.575 190.480  0.00  0.00    +0.000 A 
ATOM     36  C   UNL     1     149.380  99.953 190.402  0.00  0.00    +0.000 A 
ATOM     37  C   UNL     1     149.812 100.048 191.544  0.00  0.00    +0.000 A 
ATOM     38  C   UNL     1     149.767  99.688 190.935  0.00  0.00    +0.000 A 
ENDBRANCH  28  33
ENDBRANCH  24  27
ENDBRANCH   4  25
TORSDOF 4
ENDMDL
MODEL 9
REMARK VINA RESULT:     -10.5     32.635     34.029
REMARK  Name = 
REMARK  4 active torsions:
REMARK  status: ('A' for Active; 'I' for Inactive)
REMARK    1  A    between atoms: C_6  and  C_16
REMARK    2  A    between atoms: C_9  and  C_11
REMARK    3  A    between atoms: C_13  and  C_19
REMARK    4  A    between atoms: N_14  and  C_22
REMARK                            x       y       z     vdW  Elec       q    Type
REMARK                         _______ _______ _______ _____ _____    ______ ____
ROOT
ATOM      1  C   UNL     1     128.316 139.982 136.544  0.00  0.00    +0.000 A 
ATOM      2  C   UNL     1     127.886 140.401 136.173  0.00  0.00    +0.000 A 
ATOM      3  C   UNL     1     128.268 139.283 136.526  0.00  0.00    +0.000 A 
ATOM      4  C   UNL     1     127.341 139.387 135.749  0.00  0.00    +0.000 A 
ATOM      5  C   UNL     1     127.771 138.968 136.121  0.00  0.00    +0.000 A 
ATOM      6  C   UNL     1     127.386 140.086 135.765  0.00  0.00    +0.000 A 
ENDROOT
BRANCH   1  12
ATOM      7  N   UNL     1     129.462 140.425 136.665  0.00  0.00    +0.000 N 
ATOM      8  C   UNL     1     130.978 140.856 136.376  0.00  0.00    +0.000 A 
ATOM      9  C   UNL     1     130.752 140.569 135.773  0.00  0.00    +0.000 A 
ATOM     10  C   UNL     1     130.593 140.930 136.981  0.00  0.00    +0.000 A 
ATOM     11  N   UNL     1     131.315 140.609 135.319  0.00  0.00    +0.000 NA
ATOM     12  C   UNL     1     128.830 140.307 136.962  0.00  0.00    +0.000 C 
ATOM     13  C   UNL     1     129.928 140.742 137.109  0.00  0.00    +0.000 A 
ATOM     14  N   UNL     1     131.639 141.066 136.313  0.00  0.00    +0.000 NA
ATOM     15  C   UNL     1     131.859 140.919 135.664  0.00  0.00    +0.000 A 
ATOM     16  C   UNL     1     129.554 140.228 136.000  0.00  0.00    +0.000 C 
ATOM     17  C   UNL     1     130.132 140.291 135.599  0.00  0.00    +0.000 C 
ATOM     18  O   UNL     1     128.681 140.481 137.619  0.00  0.00    +0.000 OA
ATOM     19  C   UNL     1     130.985 141.243 137.488  0.00  0.00    +0.000 A 
ATOM     20  C   UNL     1     129.639 140.861 137.749  0.00  0.00    +0.000 A 
ATOM     21  C   UNL     1     132.490 141.036 135.363  0.00  0.00    +0.000 C 
ATOM     22  C   UNL     1     130.697 141.363 138.129  0.00  0.00    +0.000 A 
ATOM     23  C   UNL     1     130.024 141.171 138.255  0.00  0.00    +0.000 A 
ENDBRANCH   1  12
BRANCH   4  25
ATOM     24  C   UNL     1     126.196 138.967 135.628  0.00  0.00    +0.000 C 
ATOM     25  N   UNL     1     126.835 139.074 135.337  0.00  0.00    +0.000 NA
ATOM     26  O   UNL     1     126.072 139.163 136.293  0.00  0.00    +0.000 OA
BRANCH  24  27
ATOM     27  C   UNL     1     125.685 138.663 135.243  0.00  0.00    +0.000 A 
ATOM     28  C   UNL     1     125.039 138.579 135.525  0.00  0.00    +0.000 A 
ATOM     29  C   UNL     1     125.816 138.444 134.587  0.00  0.00    +0.000 A 
ATOM     30  C   UNL     1     124.527 138.275 135.140  0.00  0.00    +0.000 A 
ATOM     31  C   UNL     1     125.304 138.139 134.201  0.00  0.00    +0.000 A 
ATOM     32  C   UNL     1     124.659 138.056 134.484  0.00  0.00    +0.000 A 
BRANCH  28  33
ATOM     33  C   UNL     1     124.907 138.798 136.181  0.00  0.00    +0.000 A 
ATOM     34  C   UNL     1     124.992 138.356 136.729  0.00  0.00    +0.000 A 
ATOM     35  C   UNL     1     124.690 139.460 136.293  0.00  0.00    +0.000 A 
ATOM     36  C   UNL     1     124.557 139.681 136.958  0.00  0.00    +0.000 A 
ATOM     37  C   UNL     1     124.860 138.575 137.387  0.00  0.00    +0.000 A 
ATOM     38  C   UNL     1     124.642 139.238 137.506  0.00  0.00    +0.000 A 
ENDBRANCH  28  33
ENDBRANCH  24  27
ENDBRANCH   4  25
TORSDOF 4
ENDMDL
MODEL 10
REMARK VINA RESULT:     -10.4     35.215     37.586
REMARK  Name = 
REMARK  4 active torsions:
REMARK  status: ('A' for Active; 'I' for Inactive)
REMARK    1  A    between atoms: C_6  and  C_16
REMARK    2  A    between atoms: C_9  and  C_11
REMARK    3  A    between atoms: C_13  and  C_19
REMARK    4  A    between atoms: N_14  and  C_22
REMARK                            x       y       z     vdW  Elec       q    Type
REMARK                         _______ _______ _______ _____ _____    ______ ____
ROOT
ATOM      1  C   UNL     1     108.879 119.418 188.158  0.00  0.00    +0.000 A 
ATOM      2  C   UNL     1     109.487 119.090 188.296  0.00  0.00    +0.000 A 
ATOM      3  C   UNL     1     108.562 119.379 187.534  0.00  0.00    +0.000 A 
ATOM      4  C   UNL     1     109.463 118.665 187.145  0.00  0.00    +0.000 A 
ATOM      5  C   UNL     1     108.854 118.994 187.008  0.00  0.00    +0.000 A 
ATOM      6  C   UNL     1     109.782 118.704 187.768  0.00  0.00    +0.000 A 
ENDROOT
BRANCH   1  12
ATOM      7  N   UNL     1     108.091 119.494 189.106  0.00  0.00    +0.000 N 
ATOM      8  C   UNL     1     106.987 119.147 190.215  0.00  0.00    +0.000 A 
ATOM      9  C   UNL     1     107.062 118.554 189.840  0.00  0.00    +0.000 A 
ATOM     10  C   UNL     1     107.341 119.766 190.106  0.00  0.00    +0.000 A 
ATOM     11  N   UNL     1     106.604 118.079 190.139  0.00  0.00    +0.000 NA
ATOM     12  C   UNL     1     108.576 119.816 188.702  0.00  0.00    +0.000 C 
ATOM     13  C   UNL     1     107.825 119.919 189.620  0.00  0.00    +0.000 A 
ATOM     14  N   UNL     1     106.514 119.058 190.718  0.00  0.00    +0.000 NA
ATOM     15  C   UNL     1     106.270 118.402 190.682  0.00  0.00    +0.000 A 
ATOM     16  C   UNL     1     107.934 118.827 188.963  0.00  0.00    +0.000 C 
ATOM     17  C   UNL     1     107.473 118.404 189.291  0.00  0.00    +0.000 C 
ATOM     18  O   UNL     1     108.771 120.477 188.797  0.00  0.00    +0.000 OA
ATOM     19  C   UNL     1     107.136 120.255 190.581  0.00  0.00    +0.000 A 
ATOM     20  C   UNL     1     108.117 120.569 189.598  0.00  0.00    +0.000 A 
ATOM     21  C   UNL     1     105.786 118.077 191.085  0.00  0.00    +0.000 C 
ATOM     22  C   UNL     1     107.427 120.906 190.560  0.00  0.00    +0.000 A 
ATOM     23  C   UNL     1     107.917 121.058 190.068  0.00  0.00    +0.000 A 
ENDBRANCH   1  12
BRANCH   4  25
ATOM     24  C   UNL     1     110.230 118.602 186.192  0.00  0.00    +0.000 C 
ATOM     25  N   UNL     1     109.765 118.274 186.616  0.00  0.00    +0.000 NA
ATOM     26  O   UNL     1     110.385 119.282 186.292  0.00  0.00    +0.000 OA
BRANCH  24  27
ATOM     27  C   UNL     1     110.538 118.239 185.667  0.00  0.00    +0.000 A 
ATOM     28  C   UNL     1     110.953 118.581 185.203  0.00  0.00    +0.000 A 
ATOM     29  C   UNL     1     110.434 117.545 185.605  0.00  0.00    +0.000 A 
ATOM     30  C   UNL     1     111.261 118.218 184.677  0.00  0.00    +0.000 A 
ATOM     31  C   UNL     1     110.743 117.181 185.079  0.00  0.00    +0.000 A 
ATOM     32  C   UNL     1     111.157 117.524 184.616  0.00  0.00    +0.000 A 
BRANCH  28  33
ATOM     33  C   UNL     1     111.057 119.275 185.264  0.00  0.00    +0.000 A 
ATOM     34  C   UNL     1     110.622 119.732 184.940  0.00  0.00    +0.000 A 
ATOM     35  C   UNL     1     111.597 119.515 185.649  0.00  0.00    +0.000 A 
ATOM     36  C   UNL     1     111.702 120.217 185.711  0.00  0.00    +0.000 A 
ATOM     37  C   UNL     1     110.726 120.426 185.002  0.00  0.00    +0.000 A 
ATOM     38  C   UNL     1     111.266 120.675 185.387  0.00  0.00    +0.000 A 
ENDBRANCH  28  33
ENDBRANCH  24  27
ENDBRANCH   4  25
TORSDOF 4
ENDMDL
MODEL 11
REMARK VINA RESULT:     -10.4     31.427     33.145
REMARK  Name = 
REMARK  4 active torsions:
REMARK  status: ('A' for Active; 'I' for Inactive)
REMARK    1  A    between atoms: C_6  and  C_16
REMARK    2  A    between atoms: C_9  and  C_11
REMARK    3  A    between atoms: C_13  and  C_19
REMARK    4  A    between atoms: N_14  and  C_22
REMARK                            x       y       z     vdW  Elec       q    Type
REMARK                         _______ _______ _______ _____ _____    ______ ____
ROOT
ATOM      1  C   UNL     1     120.115 130.935 134.464  0.00  0.00    +0.000 A 
ATOM      2  C   UNL     1     120.751 130.786 134.730  0.00  0.00    +0.000 A 
ATOM      3  C   UNL     1     119.528 130.635 134.701  0.00  0.00    +0.000 A 
ATOM      4  C   UNL     1     120.194 130.010 135.500  0.00  0.00    +0.000 A 
ATOM      5  C   UNL     1     119.558 130.159 135.233  0.00  0.00    +0.000 A 
ATOM      6  C   UNL     1     120.783 130.308 135.265  0.00  0.00    +0.000 A 
ENDROOT
BRANCH   1  12
ATOM      7  N   UNL     1     119.835 131.199 133.290  0.00  0.00    +0.000 N 
ATOM      8  C   UNL     1     119.350 131.088 131.767  0.00  0.00    +0.000 A 
ATOM      9  C   UNL     1     119.258 130.443 132.035  0.00  0.00    +0.000 A 
ATOM     10  C   UNL     1     119.609 131.661 132.120  0.00  0.00    +0.000 A 
ATOM     11  N   UNL     1     118.989 130.046 131.491  0.00  0.00    +0.000 NA
ATOM     12  C   UNL     1     120.082 131.427 133.914  0.00  0.00    +0.000 C 
ATOM     13  C   UNL     1     119.822 131.711 132.788  0.00  0.00    +0.000 A 
ATOM     14  N   UNL     1     119.155 131.105 131.099  0.00  0.00    +0.000 NA
ATOM     15  C   UNL     1     118.930 130.466 130.917  0.00  0.00    +0.000 A 
ATOM     16  C   UNL     1     119.641 130.529 133.239  0.00  0.00    +0.000 C 
ATOM     17  C   UNL     1     119.382 130.188 132.677  0.00  0.00    +0.000 C 
ATOM     18  O   UNL     1     120.291 132.082 134.024  0.00  0.00    +0.000 OA
ATOM     19  C   UNL     1     119.632 132.228 131.689  0.00  0.00    +0.000 A 
ATOM     20  C   UNL     1     120.064 132.331 133.041  0.00  0.00    +0.000 A 
ATOM     21  C   UNL     1     118.682 130.235 130.294  0.00  0.00    +0.000 C 
ATOM     22  C   UNL     1     119.874 132.850 131.941  0.00  0.00    +0.000 A 
ATOM     23  C   UNL     1     120.089 132.897 132.617  0.00  0.00    +0.000 A 
ENDBRANCH   1  12
BRANCH   4  25
ATOM     24  C   UNL     1     120.190 129.777 136.703  0.00  0.00    +0.000 C 
ATOM     25  N   UNL     1     120.232 129.528 136.039  0.00  0.00    +0.000 NA
ATOM     26  O   UNL     1     120.114 130.467 136.820  0.00  0.00    +0.000 OA
BRANCH  24  27
ATOM     27  C   UNL     1     120.225 129.324 137.247  0.00  0.00    +0.000 A 
ATOM     28  C   UNL     1     119.922 129.498 137.865  0.00  0.00    +0.000 A 
ATOM     29  C   UNL     1     120.556 128.707 137.175  0.00  0.00    +0.000 A 
ATOM     30  C   UNL     1     119.957 129.044 138.409  0.00  0.00    +0.000 A 
ATOM     31  C   UNL     1     120.591 128.252 137.720  0.00  0.00    +0.000 A 
ATOM     32  C   UNL     1     120.288 128.428 138.338  0.00  0.00    +0.000 A 
BRANCH  28  33
ATOM     33  C   UNL     1     119.591 130.115 137.937  0.00  0.00    +0.000 A 
ATOM     34  C   UNL     1     118.895 130.164 137.812  0.00  0.00    +0.000 A 
ATOM     35  C   UNL     1     119.954 130.686 138.135  0.00  0.00    +0.000 A 
ATOM     36  C   UNL     1     119.619 131.311 138.208  0.00  0.00    +0.000 A 
ATOM     37  C   UNL     1     118.563 130.782 137.884  0.00  0.00    +0.000 A 
ATOM     38  C   UNL     1     118.922 131.360 138.082  0.00  0.00    +0.000 A 
ENDBRANCH  28  33
ENDBRANCH  24  27
ENDBRANCH   4  25
TORSDOF 4
ENDMDL
MODEL 12
REMARK VINA RESULT:     -10.3     17.068     18.915
REMARK  Name = 
REMARK  4 active torsions:
REMARK  status: ('A' for Active; 'I' for Inactive)
REMARK    1  A    between atoms: C_6  and  C_16
REMARK    2  A    between atoms: C_9  and  C_11
REMARK    3  A    between atoms: C_13  and  C_19
REMARK    4  A    between atoms: N_14  and  C_22
REMARK                            x       y       z     vdW  Elec       q    Type
REMARK                         _______ _______ _______ _____ _____    ______ ____
ROOT
ATOM      1  C   UNL     1     115.106 155.241 150.322  0.00  0.00    +0.000 A 
ATOM      2  C   UNL     1     114.804 155.861 150.176  0.00  0.00    +0.000 A 
ATOM      3  C   UNL     1     114.782 154.629 150.215  0.00  0.00    +0.000 A 
ATOM      4  C   UNL     1     113.816 155.236 149.803  0.00  0.00    +0.000 A 
ATOM      5  C   UNL     1     114.119 154.616 149.949  0.00  0.00    +0.000 A 
ATOM      6  C   UNL     1     114.138 155.850 149.909  0.00  0.00    +0.000 A 
ENDROOT
BRANCH   1  12
ATOM      7  N   UNL     1     116.321 155.369 150.141  0.00  0.00    +0.000 N 
ATOM      8  C   UNL     1     117.756 155.593 149.463  0.00  0.00    +0.000 A 
ATOM      9  C   UNL     1     117.294 155.640 148.933  0.00  0.00    +0.000 A 
ATOM     10  C   UNL     1     117.596 155.470 150.156  0.00  0.00    +0.000 A 
ATOM     11  N   UNL     1     117.694 155.767 148.342  0.00  0.00    +0.000 NA
ATOM     12  C   UNL     1     115.792 155.253 150.597  0.00  0.00    +0.000 C 
ATOM     13  C   UNL     1     116.967 155.372 150.454  0.00  0.00    +0.000 A 
ATOM     14  N   UNL     1     118.405 155.684 149.229  0.00  0.00    +0.000 NA
ATOM     15  C   UNL     1     118.380 155.792 148.537  0.00  0.00    +0.000 A 
ATOM     16  C   UNL     1     116.160 155.463 149.467  0.00  0.00    +0.000 C 
ATOM     17  C   UNL     1     116.594 155.584 148.924  0.00  0.00    +0.000 C 
ATOM     18  O   UNL     1     115.892 155.153 151.279  0.00  0.00    +0.000 OA
ATOM     19  C   UNL     1     118.190 155.456 150.549  0.00  0.00    +0.000 A 
ATOM     20  C   UNL     1     116.918 155.256 151.155  0.00  0.00    +0.000 A 
ATOM     21  C   UNL     1     118.908 155.908 148.078  0.00  0.00    +0.000 C 
ATOM     22  C   UNL     1     118.142 155.341 151.251  0.00  0.00    +0.000 A 
ATOM     23  C   UNL     1     117.505 155.241 151.550  0.00  0.00    +0.000 A 
ENDBRANCH   1  12
BRANCH   4  25
ATOM     24  C   UNL     1     113.068 155.048 148.851  0.00  0.00    +0.000 C 
ATOM     25  N   UNL     1     113.144 155.230 149.533  0.00  0.00    +0.000 NA
ATOM     26  O   UNL     1     113.631 154.882 148.463  0.00  0.00    +0.000 OA
BRANCH  24  27
ATOM     27  C   UNL     1     112.419 155.035 148.565  0.00  0.00    +0.000 A 
ATOM     28  C   UNL     1     112.350 154.997 147.859  0.00  0.00    +0.000 A 
ATOM     29  C   UNL     1     111.849 155.060 148.976  0.00  0.00    +0.000 A 
ATOM     30  C   UNL     1     111.702 154.984 147.573  0.00  0.00    +0.000 A 
ATOM     31  C   UNL     1     111.199 155.047 148.690  0.00  0.00    +0.000 A 
ATOM     32  C   UNL     1     111.131 155.009 147.985  0.00  0.00    +0.000 A 
BRANCH  28  33
ATOM     33  C   UNL     1     112.921 154.972 147.448  0.00  0.00    +0.000 A 
ATOM     34  C   UNL     1     113.217 154.349 147.283  0.00  0.00    +0.000 A 
ATOM     35  C   UNL     1     113.199 155.571 147.198  0.00  0.00    +0.000 A 
ATOM     36  C   UNL     1     113.777 155.546 146.781  0.00  0.00    +0.000 A 
ATOM     37  C   UNL     1     113.789 154.325 146.871  0.00  0.00    +0.000 A 
ATOM     38  C   UNL     1     114.073 154.922 146.617  0.00  0.00    +0.000 A 
ENDBRANCH  28  33
ENDBRANCH  24  27
ENDBRANCH   4  25
TORSDOF 4
ENDMDL
MODEL 13
REMARK VINA RESULT:     -10.1     48.774     51.183
REMARK  Name = 
REMARK  4 active torsions:
REMARK  status: ('A' for Active; 'I' for Inactive)
REMARK    1  A    between atoms: C_6  and  C_16
REMARK    2  A    between atoms: C_9  and  C_11
REMARK    3  A    between atoms: C_13  and  C_19
REMARK    4  A    between atoms: N_14  and  C_22
REMARK                            x       y       z     vdW  Elec       q    Type
REMARK                         _______ _______ _______ _____ _____    ______ ____
ROOT
ATOM      1  C   UNL     1     123.460 143.696 113.667  0.00  0.00    +0.000 A 
ATOM      2  C   UNL     1     123.511 144.398 113.636  0.00  0.00    +0.000 A 
ATOM      3  C   UNL     1     123.755 143.275 113.191  0.00  0.00    +0.000 A 
ATOM      4  C   UNL     1     124.176 144.257 112.616  0.00  0.00    +0.000 A 
ATOM      5  C   UNL     1     124.125 143.554 112.647  0.00  0.00    +0.000 A 
ATOM      6  C   UNL     1     123.882 144.680 113.091  0.00  0.00    +0.000 A 
ENDROOT
BRANCH   1  12
ATOM      7  N   UNL     1     122.388 143.281 114.120  0.00  0.00    +0.000 N 
ATOM      8  C   UNL     1     120.850 142.860 114.279  0.00  0.00    +0.000 A 
ATOM      9  C   UNL     1     120.905 143.106 113.620  0.00  0.00    +0.000 A 
ATOM     10  C   UNL     1     121.384 142.817 114.762  0.00  0.00    +0.000 A 
ATOM     11  N   UNL     1     120.240 143.048 113.338  0.00  0.00    +0.000 NA
ATOM     12  C   UNL     1     123.077 143.406 114.229  0.00  0.00    +0.000 C 
ATOM     13  C   UNL     1     122.059 143.001 114.693  0.00  0.00    +0.000 A 
ATOM     14  N   UNL     1     120.197 142.659 114.410  0.00  0.00    +0.000 NA
ATOM     15  C   UNL     1     119.810 142.770 113.836  0.00  0.00    +0.000 A 
ATOM     16  C   UNL     1     122.120 143.439 113.494  0.00  0.00    +0.000 C 
ATOM     17  C   UNL     1     121.456 143.361 113.268  0.00  0.00    +0.000 C 
ATOM     18  O   UNL     1     123.398 143.270 114.831  0.00  0.00    +0.000 OA
ATOM     19  C   UNL     1     121.143 142.543 115.374  0.00  0.00    +0.000 A 
ATOM     20  C   UNL     1     122.510 142.915 115.238  0.00  0.00    +0.000 A 
ATOM     21  C   UNL     1     119.121 142.646 113.724  0.00  0.00    +0.000 C 
ATOM     22  C   UNL     1     121.594 142.457 115.920  0.00  0.00    +0.000 A 
ATOM     23  C   UNL     1     122.276 142.644 115.847  0.00  0.00    +0.000 A 
ENDBRANCH   1  12
BRANCH   4  25
ATOM     24  C   UNL     1     125.248 144.638 112.160  0.00  0.00    +0.000 C 
ATOM     25  N   UNL     1     124.550 144.546 112.067  0.00  0.00    +0.000 NA
ATOM     26  O   UNL     1     125.553 144.451 112.766  0.00  0.00    +0.000 OA
BRANCH  24  27
ATOM     27  C   UNL     1     125.634 144.920 111.636  0.00  0.00    +0.000 A 
ATOM     28  C   UNL     1     126.315 145.082 111.754  0.00  0.00    +0.000 A 
ATOM     29  C   UNL     1     125.346 145.037 111.005  0.00  0.00    +0.000 A 
ATOM     30  C   UNL     1     126.702 145.364 111.231  0.00  0.00    +0.000 A 
ATOM     31  C   UNL     1     125.733 145.319 110.480  0.00  0.00    +0.000 A 
ATOM     32  C   UNL     1     126.413 145.481 110.599  0.00  0.00    +0.000 A 
BRANCH  28  33
ATOM     33  C   UNL     1     126.604 144.965 112.386  0.00  0.00    +0.000 A 
ATOM     34  C   UNL     1     126.912 144.342 112.528  0.00  0.00    +0.000 A 
ATOM     35  C   UNL     1     126.586 145.470 112.878  0.00  0.00    +0.000 A 
ATOM     36  C   UNL     1     126.878 145.352 113.517  0.00  0.00    +0.000 A 
ATOM     37  C   UNL     1     127.201 144.225 113.161  0.00  0.00    +0.000 A 
ATOM     38  C   UNL     1     127.187 144.728 113.660  0.00  0.00    +0.000 A 
ENDBRANCH  28  33
ENDBRANCH  24  27
ENDBRANCH   4  25
TORSDOF 4
ENDMDL
MODEL 14
REMARK VINA RESULT:     -10.1     76.853     78.775
REMARK  Name = 
REMARK  4 active torsions:
REMARK  status: ('A' for Active; 'I' for Inactive)
REMARK    1  A    between atoms: C_6  and  C_16
REMARK    2  A    between atoms: C_9  and  C_11
REMARK    3  A    between atoms: C_13  and  C_19
REMARK    4  A    between atoms: N_14  and  C_22
REMARK                            x       y       z     vdW  Elec       q    Type
REMARK                         _______ _______ _______ _____ _____    ______ ____
ROOT
ATOM      1  C   UNL     1     153.299 149.712  98.613  0.00  0.00    +0.000 A 
ATOM      2  C   UNL     1     152.599 149.647  98.674  0.00  0.00    +0.000 A 
ATOM      3  C   UNL     1     153.607 150.315  98.433  0.00  0.00    +0.000 A 
ATOM      4  C   UNL     1     152.511 150.831  98.364  0.00  0.00    +0.000 A 
ATOM      5  C   UNL     1     153.211 150.895  98.303  0.00  0.00    +0.000 A 
ATOM      6  C   UNL     1     152.200 150.229  98.544  0.00  0.00    +0.000 A 
ENDROOT
BRANCH   1  12
ATOM      7  N   UNL     1     153.924 149.011  99.414  0.00  0.00    +0.000 N 
ATOM      8  C   UNL     1     154.593 148.434 100.752  0.00  0.00    +0.000 A 
ATOM      9  C   UNL     1     154.263 149.024 100.952  0.00  0.00    +0.000 A 
ATOM     10  C   UNL     1     154.612 148.165 100.082  0.00  0.00    +0.000 A 
ATOM     11  N   UNL     1     154.388 149.080 101.664  0.00  0.00    +0.000 NA
ATOM     12  C   UNL     1     153.709 149.113  98.747  0.00  0.00    +0.000 C 
ATOM     13  C   UNL     1     154.320 148.417  99.495  0.00  0.00    +0.000 A 
ATOM     14  N   UNL     1     154.906 148.133 101.295  0.00  0.00    +0.000 NA
ATOM     15  C   UNL     1     154.787 148.523 101.866  0.00  0.00    +0.000 A 
ATOM     16  C   UNL     1     153.735 149.481  99.896  0.00  0.00    +0.000 C 
ATOM     17  C   UNL     1     153.886 149.488 100.586  0.00  0.00    +0.000 C 
ATOM     18  O   UNL     1     153.867 148.679  98.226  0.00  0.00    +0.000 OA
ATOM     19  C   UNL     1     154.992 147.562 100.069  0.00  0.00    +0.000 A 
ATOM     20  C   UNL     1     154.400 148.071  98.878  0.00  0.00    +0.000 A 
ATOM     21  C   UNL     1     155.001 148.424 102.534  0.00  0.00    +0.000 C 
ATOM     22  C   UNL     1     155.073 147.214  99.451  0.00  0.00    +0.000 A 
ATOM     23  C   UNL     1     154.776 147.472  98.859  0.00  0.00    +0.000 A 
ENDBRANCH   1  12
BRANCH   4  25
ATOM     24  C   UNL     1     151.882 151.517  97.568  0.00  0.00    +0.000 C 
ATOM     25  N   UNL     1     152.103 151.415  98.234  0.00  0.00    +0.000 NA
ATOM     26  O   UNL     1     152.059 151.061  97.061  0.00  0.00    +0.000 OA
BRANCH  24  27
ATOM     27  C   UNL     1     151.482 152.083  97.417  0.00  0.00    +0.000 A 
ATOM     28  C   UNL     1     151.192 152.142  96.771  0.00  0.00    +0.000 A 
ATOM     29  C   UNL     1     151.373 152.581  97.902  0.00  0.00    +0.000 A 
ATOM     30  C   UNL     1     150.792 152.708  96.620  0.00  0.00    +0.000 A 
ATOM     31  C   UNL     1     150.972 153.147  97.751  0.00  0.00    +0.000 A 
ATOM     32  C   UNL     1     150.683 153.206  97.106  0.00  0.00    +0.000 A 
BRANCH  28  33
ATOM     33  C   UNL     1     151.301 151.644  96.286  0.00  0.00    +0.000 A 
ATOM     34  C   UNL     1     150.855 151.096  96.229  0.00  0.00    +0.000 A 
ATOM     35  C   UNL     1     151.857 151.692  95.854  0.00  0.00    +0.000 A 
ATOM     36  C   UNL     1     151.968 151.188  95.363  0.00  0.00    +0.000 A 
ATOM     37  C   UNL     1     150.964 150.597  95.743  0.00  0.00    +0.000 A 
ATOM     38  C   UNL     1     151.521 150.639  95.306  0.00  0.00    +0.000 A 
ENDBRANCH  28  33
ENDBRANCH  24  27
ENDBRANCH   4  25
TORSDOF 4
ENDMDL
MODEL 15
REMARK VINA RESULT:     -10.1     17.258     20.184
REMARK  Name = 
REMARK  4 active torsions:
REMARK  status: ('A' for Active; 'I' for Inactive)
REMARK    1  A    between atoms: C_6  and  C_16
REMARK    2  A    between atoms: C_9  and  C_11
REMARK    3  A    between atoms: C_13  and  C_19
REMARK    4  A    between atoms: N_14  and  C_22
REMARK                            x       y       z     vdW  Elec       q    Type
REMARK                         _______ _______ _______ _____ _____    ______ ____
ROOT
ATOM      1  C   UNL     1     112.484 155.565 145.188  0.00  0.00    +0.000 A 
ATOM      2  C   UNL     1     112.591 156.152 145.564  0.00  0.00    +0.000 A 
ATOM      3  C   UNL     1     112.605 154.925 145.447  0.00  0.00    +0.000 A 
ATOM      4  C   UNL     1     112.955 155.436 146.491  0.00  0.00    +0.000 A 
ATOM      5  C   UNL     1     112.848 154.848 146.114  0.00  0.00    +0.000 A 
ATOM      6  C   UNL     1     112.834 156.077 146.235  0.00  0.00    +0.000 A 
ENDROOT
BRANCH   1  12
ATOM      7  N   UNL     1     112.717 155.711 143.985  0.00  0.00    +0.000 N 
ATOM      8  C   UNL     1     113.463 155.888 142.577  0.00  0.00    +0.000 A 
ATOM      9  C   UNL     1     113.981 155.839 143.053  0.00  0.00    +0.000 A 
ATOM     10  C   UNL     1     112.755 155.862 142.715  0.00  0.00    +0.000 A 
ATOM     11  N   UNL     1     114.595 155.893 142.673  0.00  0.00    +0.000 NA
ATOM     12  C   UNL     1     112.234 155.644 144.498  0.00  0.00    +0.000 C 
ATOM     13  C   UNL     1     112.427 155.784 143.332  0.00  0.00    +0.000 A 
ATOM     14  N   UNL     1     113.726 155.967 141.937  0.00  0.00    +0.000 NA
ATOM     15  C   UNL     1     114.426 155.972 141.984  0.00  0.00    +0.000 A 
ATOM     16  C   UNL     1     113.393 155.699 144.166  0.00  0.00    +0.000 C 
ATOM     17  C   UNL     1     113.960 155.756 143.749  0.00  0.00    +0.000 C 
ATOM     18  O   UNL     1     111.548 155.648 144.377  0.00  0.00    +0.000 OA
ATOM     19  C   UNL     1     112.382 155.928 142.112  0.00  0.00    +0.000 A 
ATOM     20  C   UNL     1     111.716 155.771 143.359  0.00  0.00    +0.000 A 
ATOM     21  C   UNL     1     114.912 156.039 141.472  0.00  0.00    +0.000 C 
ATOM     22  C   UNL     1     111.670 155.915 142.138  0.00  0.00    +0.000 A 
ATOM     23  C   UNL     1     111.341 155.836 142.763  0.00  0.00    +0.000 A 
ENDBRANCH   1  12
BRANCH   4  25
ATOM     24  C   UNL     1     112.718 155.296 147.685  0.00  0.00    +0.000 C 
ATOM     25  N   UNL     1     113.200 155.365 147.168  0.00  0.00    +0.000 NA
ATOM     26  O   UNL     1     112.031 155.298 147.532  0.00  0.00    +0.000 OA
BRANCH  24  27
ATOM     27  C   UNL     1     112.935 155.226 148.356  0.00  0.00    +0.000 A 
ATOM     28  C   UNL     1     112.455 155.222 148.879  0.00  0.00    +0.000 A 
ATOM     29  C   UNL     1     113.620 155.160 148.503  0.00  0.00    +0.000 A 
ATOM     30  C   UNL     1     112.672 155.151 149.550  0.00  0.00    +0.000 A 
ATOM     31  C   UNL     1     113.838 155.090 149.176  0.00  0.00    +0.000 A 
ATOM     32  C   UNL     1     113.357 155.086 149.697  0.00  0.00    +0.000 A 
BRANCH  28  33
ATOM     33  C   UNL     1     111.769 155.287 148.732  0.00  0.00    +0.000 A 
ATOM     34  C   UNL     1     111.377 154.713 148.592  0.00  0.00    +0.000 A 
ATOM     35  C   UNL     1     111.473 155.927 148.723  0.00  0.00    +0.000 A 
ATOM     36  C   UNL     1     110.778 155.993 148.574  0.00  0.00    +0.000 A 
ATOM     37  C   UNL     1     110.690 154.779 148.445  0.00  0.00    +0.000 A 
ATOM     38  C   UNL     1     110.386 155.419 148.435  0.00  0.00    +0.000 A 
ENDBRANCH  28  33
ENDBRANCH  24  27
ENDBRANCH   4  25
TORSDOF 4
ENDMDL
MODEL 16
REMARK VINA RESULT:     -10.1     62.762     65.408
REMARK  Name = 
REMARK  4 active torsions:
REMARK  status: ('A' for Active; 'I' for Inactive)
REMARK    1  A    between atoms: C_6  and  C_16
REMARK    2  A    between atoms: C_9  and  C_11
REMARK    3  A    between atoms: C_13  and  C_19
REMARK    4  A    between atoms: N_14  and  C_22
REMARK                            x       y       z     vdW  Elec       q    Type
REMARK                         _______ _______ _______ _____ _____    ______ ____
ROOT
ATOM      1  C   UNL     1     163.110 131.650 188.619  0.00  0.00    +0.000 A 
ATOM      2  C   UNL     1     162.986 132.277 188.915  0.00  0.00    +0.000 A 
ATOM      3  C   UNL     1     163.739 131.340 188.643  0.00  0.00    +0.000 A 
ATOM      4  C   UNL     1     164.160 132.289 189.271  0.00  0.00    +0.000 A 
ATOM      5  C   UNL     1     164.284 131.661 188.975  0.00  0.00    +0.000 A 
ATOM      6  C   UNL     1     163.532 132.601 189.250  0.00  0.00    +0.000 A 
ENDROOT
BRANCH   1  12
ATOM      7  N   UNL     1     162.481 131.432 187.579  0.00  0.00    +0.000 N 
ATOM      8  C   UNL     1     161.995 131.432 186.052  0.00  0.00    +0.000 A 
ATOM      9  C   UNL     1     162.564 131.847 186.063  0.00  0.00    +0.000 A 
ATOM     10  C   UNL     1     161.709 131.090 186.620  0.00  0.00    +0.000 A 
ATOM     11  N   UNL     1     162.650 132.070 185.378  0.00  0.00    +0.000 NA
ATOM     12  C   UNL     1     162.548 131.318 188.275  0.00  0.00    +0.000 C 
ATOM     13  C   UNL     1     161.921 131.089 187.289  0.00  0.00    +0.000 A 
ATOM     14  N   UNL     1     161.734 131.391 185.408  0.00  0.00    +0.000 NA
ATOM     15  C   UNL     1     162.131 131.782 184.982  0.00  0.00    +0.000 A 
ATOM     16  C   UNL     1     162.950 131.848 187.269  0.00  0.00    +0.000 C 
ATOM     17  C   UNL     1     162.989 132.035 186.589  0.00  0.00    +0.000 C 
ATOM     18  O   UNL     1     162.112 130.913 188.638  0.00  0.00    +0.000 OA
ATOM     19  C   UNL     1     161.135 130.716 186.420  0.00  0.00    +0.000 A 
ATOM     20  C   UNL     1     161.564 130.713 187.778  0.00  0.00    +0.000 A 
ATOM     21  C   UNL     1     162.067 131.898 184.286  0.00  0.00    +0.000 C 
ATOM     22  C   UNL     1     160.777 130.339 186.908  0.00  0.00    +0.000 A 
ATOM     23  C   UNL     1     160.994 130.341 187.585  0.00  0.00    +0.000 A 
ENDBRANCH   1  12
BRANCH   4  25
ATOM     24  C   UNL     1     165.024 133.157 189.272  0.00  0.00    +0.000 C 
ATOM     25  N   UNL     1     164.708 132.619 189.610  0.00  0.00    +0.000 NA
ATOM     26  O   UNL     1     164.805 133.353 188.632  0.00  0.00    +0.000 OA
BRANCH  24  27
ATOM     27  C   UNL     1     165.564 133.496 189.584  0.00  0.00    +0.000 A 
ATOM     28  C   UNL     1     165.987 133.911 189.194  0.00  0.00    +0.000 A 
ATOM     29  C   UNL     1     165.678 133.421 190.274  0.00  0.00    +0.000 A 
ATOM     30  C   UNL     1     166.526 134.249 189.506  0.00  0.00    +0.000 A 
ATOM     31  C   UNL     1     166.218 133.760 190.587  0.00  0.00    +0.000 A 
ATOM     32  C   UNL     1     166.641 134.174 190.196  0.00  0.00    +0.000 A 
BRANCH  28  33
ATOM     33  C   UNL     1     165.872 133.986 188.503  0.00  0.00    +0.000 A 
ATOM     34  C   UNL     1     165.437 134.493 188.266  0.00  0.00    +0.000 A 
ATOM     35  C   UNL     1     166.192 133.554 188.046  0.00  0.00    +0.000 A 
ATOM     36  C   UNL     1     166.076 133.630 187.347  0.00  0.00    +0.000 A 
ATOM     37  C   UNL     1     165.322 134.568 187.574  0.00  0.00    +0.000 A 
ATOM     38  C   UNL     1     165.641 134.138 187.109  0.00  0.00    +0.000 A 
ENDBRANCH  28  33
ENDBRANCH  24  27
ENDBRANCH   4  25
TORSDOF 4
ENDMDL
MODEL 17
REMARK VINA RESULT:     -10.0     58.454     60.408
REMARK  Name = 
REMARK  4 active torsions:
REMARK  status: ('A' for Active; 'I' for Inactive)
REMARK    1  A    between atoms: C_6  and  C_16
REMARK    2  A    between atoms: C_9  and  C_11
REMARK    3  A    between atoms: C_13  and  C_19
REMARK    4  A    between atoms: N_14  and  C_22
REMARK                            x       y       z     vdW  Elec       q    Type
REMARK                         _______ _______ _______ _____ _____    ______ ____
ROOT
ATOM      1  C   UNL     1     162.697 135.617 144.227  0.00  0.00    +0.000 A 
ATOM      2  C   UNL     1     163.237 136.053 144.349  0.00  0.00    +0.000 A 
ATOM      3  C   UNL     1     162.338 135.309 144.744  0.00  0.00    +0.000 A 
ATOM      4  C   UNL     1     163.055 135.868 145.548  0.00  0.00    +0.000 A 
ATOM      5  C   UNL     1     162.514 135.432 145.426  0.00  0.00    +0.000 A 
ATOM      6  C   UNL     1     163.416 136.178 145.033  0.00  0.00    +0.000 A 
ENDROOT
BRANCH   1  12
ATOM      7  N   UNL     1     162.832 134.945 143.200  0.00  0.00    +0.000 N 
ATOM      8  C   UNL     1     163.310 133.841 142.141  0.00  0.00    +0.000 A 
ATOM      9  C   UNL     1     163.670 133.697 142.730  0.00  0.00    +0.000 A 
ATOM     10  C   UNL     1     162.834 134.376 142.055  0.00  0.00    +0.000 A 
ATOM     11  N   UNL     1     164.079 133.122 142.568  0.00  0.00    +0.000 NA
ATOM     12  C   UNL     1     162.514 135.490 143.523  0.00  0.00    +0.000 C 
ATOM     13  C   UNL     1     162.623 134.860 142.519  0.00  0.00    +0.000 A 
ATOM     14  N   UNL     1     163.476 133.391 141.637  0.00  0.00    +0.000 NA
ATOM     15  C   UNL     1     163.951 132.940 141.889  0.00  0.00    +0.000 A 
ATOM     16  C   UNL     1     163.293 134.569 143.568  0.00  0.00    +0.000 C 
ATOM     17  C   UNL     1     163.670 134.009 143.358  0.00  0.00    +0.000 C 
ATOM     18  O   UNL     1     162.048 135.899 143.208  0.00  0.00    +0.000 OA
ATOM     19  C   UNL     1     162.569 134.368 141.393  0.00  0.00    +0.000 A 
ATOM     20  C   UNL     1     162.142 135.350 142.330  0.00  0.00    +0.000 A 
ATOM     21  C   UNL     1     164.271 132.395 141.568  0.00  0.00    +0.000 C 
ATOM     22  C   UNL     1     162.087 134.858 141.204  0.00  0.00    +0.000 A 
ATOM     23  C   UNL     1     161.876 135.347 141.675  0.00  0.00    +0.000 A 
ENDBRANCH   1  12
BRANCH   4  25
ATOM     24  C   UNL     1     162.981 136.585 146.539  0.00  0.00    +0.000 C 
ATOM     25  N   UNL     1     163.238 135.997 146.236  0.00  0.00    +0.000 NA
ATOM     26  O   UNL     1     162.564 137.019 146.173  0.00  0.00    +0.000 OA
BRANCH  24  27
ATOM     27  C   UNL     1     163.147 136.732 147.212  0.00  0.00    +0.000 A 
ATOM     28  C   UNL     1     162.817 137.265 147.545  0.00  0.00    +0.000 A 
ATOM     29  C   UNL     1     163.636 136.353 147.548  0.00  0.00    +0.000 A 
ATOM     30  C   UNL     1     162.983 137.411 148.218  0.00  0.00    +0.000 A 
ATOM     31  C   UNL     1     163.803 136.499 148.223  0.00  0.00    +0.000 A 
ATOM     32  C   UNL     1     163.472 137.032 148.554  0.00  0.00    +0.000 A 
BRANCH  28  33
ATOM     33  C   UNL     1     162.328 137.644 147.209  0.00  0.00    +0.000 A 
ATOM     34  C   UNL     1     161.647 137.449 147.230  0.00  0.00    +0.000 A 
ATOM     35  C   UNL     1     162.519 138.221 146.849  0.00  0.00    +0.000 A 
ATOM     36  C   UNL     1     162.024 138.605 146.509  0.00  0.00    +0.000 A 
ATOM     37  C   UNL     1     161.157 137.829 146.893  0.00  0.00    +0.000 A 
ATOM     38  C   UNL     1     161.341 138.410 146.530  0.00  0.00    +0.000 A 
ENDBRANCH  28  33
ENDBRANCH  24  27
ENDBRANCH   4  25
TORSDOF 4
ENDMDL
MODEL 18
REMARK VINA RESULT:     -10.0     69.109     70.412
REMARK  Name = 
REMARK  4 active torsions:
REMARK  status: ('A' for Active; 'I' for Inactive)
REMARK    1  A    between atoms: C_6  and  C_16
REMARK    2  A    between atoms: C_9  and  C_11
REMARK    3  A    between atoms: C_13  and  C_19
REMARK    4  A    between atoms: N_14  and  C_22
REMARK                            x       y       z     vdW  Elec       q    Type
REMARK                         _______ _______ _______ _____ _____    ______ ____
ROOT
ATOM      1  C   UNL     1     156.555 146.306 112.327  0.00  0.00    +0.000 A 
ATOM      2  C   UNL     1     156.221 146.213 112.941  0.00  0.00    +0.000 A 
ATOM      3  C   UNL     1     156.249 146.180 111.709  0.00  0.00    +0.000 A 
ATOM      4  C   UNL     1     155.239 145.855 112.299  0.00  0.00    +0.000 A 
ATOM      5  C   UNL     1     155.573 145.948 111.684  0.00  0.00    +0.000 A 
ATOM      6  C   UNL     1     155.543 145.980 112.918  0.00  0.00    +0.000 A 
ENDROOT
BRANCH   1  12
ATOM      7  N   UNL     1     157.764 146.056 112.310  0.00  0.00    +0.000 N 
ATOM      8  C   UNL     1     159.172 145.293 112.247  0.00  0.00    +0.000 A 
ATOM      9  C   UNL     1     158.687 144.784 112.199  0.00  0.00    +0.000 A 
ATOM     10  C   UNL     1     159.042 146.000 112.310  0.00  0.00    +0.000 A 
ATOM     11  N   UNL     1     159.062 144.166 112.145  0.00  0.00    +0.000 NA
ATOM     12  C   UNL     1     157.253 146.545 112.351  0.00  0.00    +0.000 C 
ATOM     13  C   UNL     1     158.425 146.335 112.337  0.00  0.00    +0.000 A 
ATOM     14  N   UNL     1     159.813 145.021 112.225  0.00  0.00    +0.000 NA
ATOM     15  C   UNL     1     159.758 144.325 112.163  0.00  0.00    +0.000 A 
ATOM     16  C   UNL     1     157.573 145.386 112.249  0.00  0.00    +0.000 C 
ATOM     17  C   UNL     1     157.985 144.814 112.199  0.00  0.00    +0.000 C 
ATOM     18  O   UNL     1     157.383 147.226 112.413  0.00  0.00    +0.000 OA
ATOM     19  C   UNL     1     159.654 146.363 112.345  0.00  0.00    +0.000 A 
ATOM     20  C   UNL     1     158.406 147.044 112.401  0.00  0.00    +0.000 A 
ATOM     21  C   UNL     1     160.267 143.834 112.121  0.00  0.00    +0.000 C 
ATOM     22  C   UNL     1     159.636 147.073 112.409  0.00  0.00    +0.000 A 
ATOM     23  C   UNL     1     159.011 147.409 112.436  0.00  0.00    +0.000 A 
ENDBRANCH   1  12
BRANCH   4  25
ATOM     24  C   UNL     1     154.041 146.111 112.271  0.00  0.00    +0.000 C 
ATOM     25  N   UNL     1     154.554 145.621 112.281  0.00  0.00    +0.000 NA
ATOM     26  O   UNL     1     154.204 146.796 112.278  0.00  0.00    +0.000 OA
BRANCH  24  27
ATOM     27  C   UNL     1     153.363 145.905 112.253  0.00  0.00    +0.000 A 
ATOM     28  C   UNL     1     152.856 146.385 112.127  0.00  0.00    +0.000 A 
ATOM     29  C   UNL     1     153.194 145.230 112.360  0.00  0.00    +0.000 A 
ATOM     30  C   UNL     1     152.178 146.179 112.109  0.00  0.00    +0.000 A 
ATOM     31  C   UNL     1     152.515 145.023 112.343  0.00  0.00    +0.000 A 
ATOM     32  C   UNL     1     152.009 145.504 112.216  0.00  0.00    +0.000 A 
BRANCH  28  33
ATOM     33  C   UNL     1     153.025 147.060 112.020  0.00  0.00    +0.000 A 
ATOM     34  C   UNL     1     153.152 147.298 111.364  0.00  0.00    +0.000 A 
ATOM     35  C   UNL     1     153.068 147.502 112.570  0.00  0.00    +0.000 A 
ATOM     36  C   UNL     1     153.239 148.185 112.462  0.00  0.00    +0.000 A 
ATOM     37  C   UNL     1     153.321 147.974 111.258  0.00  0.00    +0.000 A 
ATOM     38  C   UNL     1     153.366 148.423 111.805  0.00  0.00    +0.000 A 
ENDBRANCH  28  33
ENDBRANCH  24  27
ENDBRANCH   4  25
TORSDOF 4
ENDMDL
MODEL 19
REMARK VINA RESULT:     -10.0     35.005     36.762
REMARK  Name = 
REMARK  4 active torsions:
REMARK  status: ('A' for Active; 'I' for Inactive)
REMARK    1  A    between atoms: C_6  and  C_16
REMARK    2  A    between atoms: C_9  and  C_11
REMARK    3  A    between atoms: C_13  and  C_19
REMARK    4  A    between atoms: N_14  and  C_22
REMARK                            x       y       z     vdW  Elec       q    Type
REMARK                         _______ _______ _______ _____ _____    ______ ____
ROOT
ATOM      1  C   UNL     1     108.756 119.238 188.250  0.00  0.00    +0.000 A 
ATOM      2  C   UNL     1     109.428 119.032 188.310  0.00  0.00    +0.000 A 
ATOM      3  C   UNL     1     108.376 119.123 187.672  0.00  0.00    +0.000 A 
ATOM      4  C   UNL     1     109.339 118.578 187.173  0.00  0.00    +0.000 A 
ATOM      5  C   UNL     1     108.667 118.785 187.114  0.00  0.00    +0.000 A 
ATOM      6  C   UNL     1     109.721 118.692 187.750  0.00  0.00    +0.000 A 
ENDROOT
BRANCH   1  12
ATOM      7  N   UNL     1     108.333 120.282 188.755  0.00  0.00    +0.000 N 
ATOM      8  C   UNL     1     107.909 121.810 188.993  0.00  0.00    +0.000 A 
ATOM      9  C   UNL     1     108.170 121.792 188.339  0.00  0.00    +0.000 A 
ATOM     10  C   UNL     1     107.854 121.248 189.443  0.00  0.00    +0.000 A 
ATOM     11  N   UNL     1     108.119 122.473 188.094  0.00  0.00    +0.000 NA
ATOM     12  C   UNL     1     108.455 119.588 188.826  0.00  0.00    +0.000 C 
ATOM     13  C   UNL     1     108.040 120.578 189.340  0.00  0.00    +0.000 A 
ATOM     14  N   UNL     1     107.706 122.455 189.158  0.00  0.00    +0.000 NA
ATOM     15  C   UNL     1     107.830 122.874 188.610  0.00  0.00    +0.000 A 
ATOM     16  C   UNL     1     108.505 120.586 188.149  0.00  0.00    +0.000 C 
ATOM     17  C   UNL     1     108.432 121.263 187.960  0.00  0.00    +0.000 C 
ATOM     18  O   UNL     1     108.304 119.233 189.406  0.00  0.00    +0.000 OA
ATOM     19  C   UNL     1     107.567 121.454 190.062  0.00  0.00    +0.000 A 
ATOM     20  C   UNL     1     107.942 120.097 189.855  0.00  0.00    +0.000 A 
ATOM     21  C   UNL     1     107.709 123.569 188.536  0.00  0.00    +0.000 C 
ATOM     22  C   UNL     1     107.469 120.973 190.579  0.00  0.00    +0.000 A 
ATOM     23  C   UNL     1     107.657 120.296 190.471  0.00  0.00    +0.000 A 
ENDBRANCH   1  12
BRANCH   4  25
ATOM     24  C   UNL     1     110.139 118.582 186.245  0.00  0.00    +0.000 C 
ATOM     25  N   UNL     1     109.640 118.234 186.611  0.00  0.00    +0.000 NA
ATOM     26  O   UNL     1     110.326 119.235 186.431  0.00  0.00    +0.000 OA
BRANCH  24  27
ATOM     27  C   UNL     1     110.448 118.265 185.691  0.00  0.00    +0.000 A 
ATOM     28  C   UNL     1     110.838 118.652 185.241  0.00  0.00    +0.000 A 
ATOM     29  C   UNL     1     110.368 117.574 185.587  0.00  0.00    +0.000 A 
ATOM     30  C   UNL     1     111.146 118.336 184.687  0.00  0.00    +0.000 A 
ATOM     31  C   UNL     1     110.677 117.256 185.031  0.00  0.00    +0.000 A 
ATOM     32  C   UNL     1     111.066 117.644 184.583  0.00  0.00    +0.000 A 
BRANCH  28  33
ATOM     33  C   UNL     1     110.918 119.344 185.346  0.00  0.00    +0.000 A 
ATOM     34  C   UNL     1     111.444 119.586 185.755  0.00  0.00    +0.000 A 
ATOM     35  C   UNL     1     110.472 119.798 185.040  0.00  0.00    +0.000 A 
ATOM     36  C   UNL     1     110.552 120.498 185.146  0.00  0.00    +0.000 A 
ATOM     37  C   UNL     1     111.524 120.278 185.859  0.00  0.00    +0.000 A 
ATOM     38  C   UNL     1     111.079 120.740 185.556  0.00  0.00    +0.000 A 
ENDBRANCH  28  33
ENDBRANCH  24  27
ENDBRANCH   4  25
TORSDOF 4
ENDMDL
MODEL 20
REMARK VINA RESULT:      -9.9     34.981     38.353
REMARK  Name = 
REMARK  4 active torsions:
REMARK  status: ('A' for Active; 'I' for Inactive)
REMARK    1  A    between atoms: C_6  and  C_16
REMARK    2  A    between atoms: C_9  and  C_11
REMARK    3  A    between atoms: C_13  and  C_19
REMARK    4  A    between atoms: N_14  and  C_22
REMARK                            x       y       z     vdW  Elec       q    Type
REMARK                         _______ _______ _______ _____ _____    ______ ____
ROOT
ATOM      1  C   UNL     1     109.398 118.218 188.187  0.00  0.00    +0.000 A 
ATOM      2  C   UNL     1     109.648 117.887 187.616  0.00  0.00    +0.000 A 
ATOM      3  C   UNL     1     109.548 118.887 188.331  0.00  0.00    +0.000 A 
ATOM      4  C   UNL     1     110.218 118.933 187.320  0.00  0.00    +0.000 A 
ATOM      5  C   UNL     1     109.968 119.263 187.892  0.00  0.00    +0.000 A 
ATOM      6  C   UNL     1     110.070 118.263 187.174  0.00  0.00    +0.000 A 
ENDROOT
BRANCH   1  12
ATOM      7  N   UNL     1     109.270 117.536 189.208  0.00  0.00    +0.000 N 
ATOM      8  C   UNL     1     109.565 116.733 190.564  0.00  0.00    +0.000 A 
ATOM      9  C   UNL     1     110.189 116.996 190.368  0.00  0.00    +0.000 A 
ATOM     10  C   UNL     1     108.940 116.819 190.214  0.00  0.00    +0.000 A 
ATOM     11  N   UNL     1     110.657 116.776 190.876  0.00  0.00    +0.000 NA
ATOM     12  C   UNL     1     108.964 117.830 188.642  0.00  0.00    +0.000 C 
ATOM     13  C   UNL     1     108.809 117.170 189.620  0.00  0.00    +0.000 A 
ATOM     14  N   UNL     1     109.628 116.369 191.154  0.00  0.00    +0.000 NA
ATOM     15  C   UNL     1     110.299 116.388 191.357  0.00  0.00    +0.000 A 
ATOM     16  C   UNL     1     109.957 117.631 189.297  0.00  0.00    +0.000 C 
ATOM     17  C   UNL     1     110.371 117.390 189.817  0.00  0.00    +0.000 C 
ATOM     18  O   UNL     1     108.285 117.769 188.502  0.00  0.00    +0.000 OA
ATOM     19  C   UNL     1     108.415 116.481 190.559  0.00  0.00    +0.000 A 
ATOM     20  C   UNL     1     108.148 117.193 189.355  0.00  0.00    +0.000 A 
ATOM     21  C   UNL     1     110.608 116.094 191.923  0.00  0.00    +0.000 C 
ATOM     22  C   UNL     1     107.753 116.504 190.295  0.00  0.00    +0.000 A 
ATOM     23  C   UNL     1     107.624 116.860 189.694  0.00  0.00    +0.000 A 
ENDBRANCH   1  12
BRANCH   4  25
ATOM     24  C   UNL     1     110.328 119.689 186.362  0.00  0.00    +0.000 C 
ATOM     25  N   UNL     1     110.644 119.307 186.871  0.00  0.00    +0.000 NA
ATOM     26  O   UNL     1     109.627 119.694 186.307  0.00  0.00    +0.000 OA
BRANCH  24  27
ATOM     27  C   UNL     1     110.726 120.064 185.910  0.00  0.00    +0.000 A 
ATOM     28  C   UNL     1     110.410 120.439 185.397  0.00  0.00    +0.000 A 
ATOM     29  C   UNL     1     111.427 120.064 185.970  0.00  0.00    +0.000 A 
ATOM     30  C   UNL     1     110.808 120.814 184.945  0.00  0.00    +0.000 A 
ATOM     31  C   UNL     1     111.826 120.440 185.518  0.00  0.00    +0.000 A 
ATOM     32  C   UNL     1     111.509 120.814 185.005  0.00  0.00    +0.000 A 
BRANCH  28  33
ATOM     33  C   UNL     1     109.709 120.438 185.337  0.00  0.00    +0.000 A 
ATOM     34  C   UNL     1     109.320 120.922 185.679  0.00  0.00    +0.000 A 
ATOM     35  C   UNL     1     109.392 119.953 184.934  0.00  0.00    +0.000 A 
ATOM     36  C   UNL     1     108.682 119.952 184.873  0.00  0.00    +0.000 A 
ATOM     37  C   UNL     1     108.617 120.921 185.619  0.00  0.00    +0.000 A 
ATOM     38  C   UNL     1     108.293 120.437 185.216  0.00  0.00    +0.000 A 
ENDBRANCH  28  33
ENDBRANCH  24  27
ENDBRANCH   4  25
TORSDOF 4
ENDMDL
