REMARK  Name = 
REMARK  14 active torsions:
REMARK  status: ('A' for Active; 'I' for Inactive)
REMARK    1  A    between atoms: C_2  and  C_3
REMARK    2  A    between atoms: C_2  and  C_4
REMARK    3  A    between atoms: C_2  and  C_15
REMARK    4  A    between atoms: C_2  and  C_23
REMARK    5  A    between atoms: C_7  and  O_19
REMARK    6  A    between atoms: C_8  and  O_21
REMARK    7  A    between atoms: C_9  and  O_24
REMARK    8  A    between atoms: C_10  and  O_25
REMARK    9  A    between atoms: C_16  and  C_22
REMARK   10  A    between atoms: N_17  and  C_20
REMARK   11  A    between atoms: N_17  and  C_27
REMARK   12  A    between atoms: C_20  and  C_22
REMARK   13  A    between atoms: C_23  and  C_26
REMARK   14  A    between atoms: C_26  and  C_27
REMARK                            x       y       z     vdW  Elec       q    Type
REMARK                         _______ _______ _______ _____ _____    ______ ____
ROOT
ATOM      1 CL   UNL     1       2.525  -7.500   0.000  0.00  0.00    +0.000 Cl
ENDROOT
TORSDOF 0
REMARK  Name = 
REMARK  14 active torsions:
REMARK  status: ('A' for Active; 'I' for Inactive)
REMARK    1  A    between atoms: C_2  and  C_3
REMARK    2  A    between atoms: C_2  and  C_4
REMARK    3  A    between atoms: C_2  and  C_15
REMARK    4  A    between atoms: C_2  and  C_23
REMARK    5  A    between atoms: C_7  and  O_19
REMARK    6  A    between atoms: C_8  and  O_21
REMARK    7  A    between atoms: C_9  and  O_24
REMARK    8  A    between atoms: C_10  and  O_25
REMARK    9  A    between atoms: C_16  and  C_22
REMARK   10  A    between atoms: N_17  and  C_20
REMARK   11  A    between atoms: N_17  and  C_27
REMARK   12  A    between atoms: C_20  and  C_22
REMARK   13  A    between atoms: C_23  and  C_26
REMARK   14  A    between atoms: C_26  and  C_27
REMARK                            x       y       z     vdW  Elec       q    Type
REMARK                         _______ _______ _______ _____ _____    ______ ____
ROOT
ATOM      1  C   UNL     1       1.329  -6.429   0.000  0.00  0.00    +0.000 C 
ENDROOT
BRANCH   1   2
ATOM      2  C   UNL     1       0.717  -6.075   0.000  0.00  0.00    +0.000 C 
BRANCH   2   3
ATOM      3  C   UNL     1       0.104  -6.429   0.000  0.00  0.00    +0.000 A 
ATOM      4  C   UNL     1      -0.508  -6.079   0.000  0.00  0.00    +0.000 A 
ATOM      5  C   UNL     1      -1.121  -6.438   0.000  0.00  0.00    +0.000 A 
ATOM      6  C   UNL     1      -1.121  -7.142   0.000  0.00  0.00    +0.000 A 
ATOM      7  C   UNL     1       0.104  -7.142   0.000  0.00  0.00    +0.000 A 
ATOM      8  C   UNL     1      -0.508  -7.500   0.000  0.00  0.00    +0.000 A 
BRANCH   5   9
ATOM      9  O   UNL     1      -1.733  -6.079   0.000  0.00  0.00    +0.000 OA
ATOM     10  C   UNL     1      -2.346  -6.429   0.000  0.00  0.00    +0.000 C 
ENDBRANCH   5   9
BRANCH   6  11
ATOM     11  O   UNL     1      -1.733  -7.500   0.000  0.00  0.00    +0.000 OA
ATOM     12  C   UNL     1      -2.346  -7.142   0.000  0.00  0.00    +0.000 C 
ENDBRANCH   6  11
ENDBRANCH   2   3
BRANCH   2  13
ATOM     13  C   UNL     1       1.067  -5.454   0.000  0.00  0.00    +0.000 C 
ATOM     14  C   UNL     1       0.704  -4.842   0.000  0.00  0.00    +0.000 C 
ATOM     15  C   UNL     1       1.775  -5.450   0.000  0.00  0.00    +0.000 C 
ENDBRANCH   2  13
BRANCH   2  16
ATOM     16  C   UNL     1       0.362  -5.454   0.000  0.00  0.00    +0.000 C 
ATOM     17  N   UNL     1       0.004  -4.842   0.000  0.00  0.00    +0.000 NA
ENDBRANCH   2  16
ENDBRANCH   1   2
BRANCH   1  18
ATOM     18  C   UNL     1       1.942  -6.067   0.000  0.00  0.00    +0.000 C 
BRANCH  18  19
ATOM     19  C   UNL     1       2.562  -6.425   0.000  0.00  0.00    +0.000 C 
BRANCH  19  20
ATOM     20  N   UNL     1       3.175  -6.067   0.000  0.00  0.00    +0.000 NA
ATOM     21  C   UNL     1       3.167  -5.354   0.000  0.00  0.00    +0.000 C 
BRANCH  20  22
ATOM     22  C   UNL     1       3.788  -6.417   0.000  0.00  0.00    +0.000 C 
BRANCH  22  23
ATOM     23  C   UNL     1       4.400  -6.062   0.000  0.00  0.00    +0.000 C 
BRANCH  23  28
ATOM     24  C   UNL     1       6.237  -6.404   0.000  0.00  0.00    +0.000 A 
ATOM     25  C   UNL     1       6.242  -7.117   0.000  0.00  0.00    +0.000 A 
ATOM     26  C   UNL     1       5.617  -6.054   0.000  0.00  0.00    +0.000 A 
ATOM     27  C   UNL     1       5.629  -7.475   0.000  0.00  0.00    +0.000 A 
ATOM     28  C   UNL     1       5.013  -6.417   0.000  0.00  0.00    +0.000 A 
ATOM     29  C   UNL     1       5.013  -7.125   0.000  0.00  0.00    +0.000 A 
BRANCH  24  30
ATOM     30  O   UNL     1       6.850  -6.050   0.000  0.00  0.00    +0.000 OA
ATOM     31  C   UNL     1       7.463  -6.400   0.000  0.00  0.00    +0.000 C 
ENDBRANCH  24  30
BRANCH  25  32
ATOM     32  O   UNL     1       6.854  -7.467   0.000  0.00  0.00    +0.000 OA
ATOM     33  C   UNL     1       7.467  -7.112   0.000  0.00  0.00    +0.000 C 
ENDBRANCH  25  32
ENDBRANCH  23  28
ENDBRANCH  22  23
ENDBRANCH  20  22
ENDBRANCH  19  20
ENDBRANCH  18  19
ENDBRANCH   1  18
TORSDOF 14
