
     RDKit          2D

 23 24  0  0  0  0  0  0  0  0999 V2000
    1.1500    1.5250    0.0000 S   0  0  0  0  0  0  0  0  0  0  0  0
    2.2167    0.9208    0.0000 N   0  0  0  0  0  0  0  0  0  0  0  0
    0.1167    0.9208    0.0000 C   0  0  0  0  0  0  0  0  0  0  0  0
   -2.9833    1.5250    0.0000 S   0  0  0  0  0  0  0  0  0  0  0  0
   -1.9500    0.9208    0.0000 C   0  0  0  0  0  0  0  0  0  0  0  0
    2.2167   -0.2875    0.0000 C   0  0  0  0  0  0  0  0  0  0  0  0
    0.1167   -0.2875    0.0000 C   0  0  0  0  0  0  0  0  0  0  0  0
    1.1500   -0.8917    0.0000 N   0  0  0  0  0  0  0  0  0  0  0  0
   -0.9208    1.5250    0.0000 C   0  0  0  0  0  0  0  0  0  0  0  0
   -1.9500   -0.2875    0.0000 C   0  0  0  0  0  0  0  0  0  0  0  0
   -0.9208   -0.8917    0.0000 C   0  0  0  0  0  0  0  0  0  0  0  0
    0.2167    2.3625    0.0000 O   0  0  0  0  0  0  0  0  0  0  0  0
    2.0375    2.3458    0.0000 O   0  0  0  0  0  0  0  0  0  0  0  0
   -3.5458    0.5125    0.0000 O   0  0  0  0  0  0  0  0  0  0  0  0
   -4.1083    2.1208    0.0000 O   0  0  0  0  0  0  0  0  0  0  0  0
    3.2875   -0.8917    0.0000 C   0  0  0  0  0  0  0  0  0  0  0  0
   -2.4000    2.5833    0.0000 N   0  0  0  0  0  0  0  0  0  0  0  0
   -3.2875   -0.9292    0.0000 Cl  0  0  0  0  0  0  0  0  0  0  0  0
    3.2875   -2.1250    0.0000 C   0  0  0  0  0  0  0  0  0  0  0  0
    4.3417   -0.2875    0.0000 C   0  0  0  0  0  0  0  0  0  0  0  0
    2.2375   -2.7667    0.0000 C   0  0  0  0  0  0  0  0  0  0  0  0
    4.3417   -2.7167    0.0000 C   0  0  0  0  0  0  0  0  0  0  0  0
    1.0542   -2.1250    0.0000 C   0  0  0  0  0  0  0  0  0  0  0  0
  2  1  1  0
  3  1  1  0
  4  5  1  0
  5  9  2  0
  6  2  1  0
  7  3  2  0
  8  7  1  0
  9  3  1  0
 10  5  1  0
 11  7  1  0
 12  1  2  0
 13  1  2  0
 14  4  2  0
 15  4  2  0
 16  6  1  0
 17  4  1  0
 18 10  1  0
 19 16  1  0
 20 16  1  0
 21 19  1  0
 22 19  1  0
 23 21  1  0
 11 10  2  0
  6  8  1  0
M  END


> <chembl_id>
CHEMBL2105212

> <chembl_pref_name>
MEBUTIZIDE
