
     RDKit          2D

 28 30  0  0  0  0  0  0  0  0999 V2000
   -1.8083    0.0458    0.0000 C   0  0  0  0  0  0  0  0  0  0  0  0
   -2.4083   -1.7792    0.0000 C   0  0  0  0  0  0  0  0  0  0  0  0
   -1.8000   -0.6792    0.0000 C   0  0  0  0  0  0  0  0  0  0  0  0
   -2.4083   -1.0500    0.0000 C   0  0  0  0  0  0  0  0  0  0  0  0
   -3.0583   -2.1500    0.0000 C   0  0  0  0  0  0  0  0  0  0  0  0
   -1.1708   -1.0375    0.0000 C   0  0  0  0  0  0  0  0  0  0  0  0
   -2.4333    0.3708    0.0000 O   0  0  0  0  0  0  0  0  0  0  0  0
    0.1375   -0.9500    0.0000 O   0  0  0  0  0  0  0  0  0  0  0  0
   -3.0583   -2.8875    0.0000 C   0  0  0  0  0  0  0  0  0  0  0  0
   -1.1958    0.3833    0.0000 O   0  0  0  0  0  0  0  0  0  0  0  0
   -0.5500   -0.6667    0.0000 C   0  0  0  0  0  0  0  0  0  0  0  0
   -0.5833    2.1875    0.0000 N   0  0  0  0  0  0  0  0  0  0  0  0
   -1.7625   -2.1500    0.0000 C   0  0  0  0  0  0  0  0  0  0  0  0
   -1.1958    1.1083    0.0000 C   0  0  0  0  0  0  0  0  0  0  0  0
   -1.7625   -2.8875    0.0000 C   0  0  0  0  0  0  0  0  0  0  0  0
   -3.7000   -1.7792    0.0000 C   0  0  0  0  0  0  0  0  0  0  0  0
   -0.5833    1.4625    0.0000 C   0  0  0  0  0  0  0  0  0  0  0  0
    0.6042   -0.3917    0.0000 C   0  0  0  0  0  0  0  0  0  0  0  0
   -2.4083   -3.2542    0.0000 C   0  0  0  0  0  0  0  0  0  0  0  0
    0.0375    2.5333    0.0000 C   0  0  0  0  0  0  0  0  0  0  0  0
   -1.2083    2.5333    0.0000 C   0  0  0  0  0  0  0  0  0  0  0  0
   -3.7000   -3.2542    0.0000 C   0  0  0  0  0  0  0  0  0  0  0  0
   -0.4958    0.0458    0.0000 C   0  0  0  0  0  0  0  0  0  0  0  0
    0.0500    3.2583    0.0000 C   0  0  0  0  0  0  0  0  0  0  0  0
   -1.8333    2.1625    0.0000 C   0  0  0  0  0  0  0  0  0  0  0  0
    0.2042    0.2250    0.0000 C   0  0  0  0  0  0  0  0  0  0  0  0
   -4.3458   -2.1500    0.0000 C   0  0  0  0  0  0  0  0  0  0  0  0
   -4.3458   -2.8875    0.0000 C   0  0  0  0  0  0  0  0  0  0  0  0
  2  4  1  0
  3  1  1  0
  4  3  1  0
  5  2  2  0
  6  3  1  0
  7  1  2  0
  8 11  1  0
  9  5  1  0
 10  1  1  0
 11  6  1  0
 12 17  1  0
 13  2  1  0
 14 10  1  0
 15 13  2  0
 16  5  1  0
 17 14  1  0
 18  8  1  0
 19 15  1  0
 20 12  1  0
 21 12  1  0
 22  9  1  0
 23 11  1  0
 24 20  1  0
 25 21  1  0
 26 23  1  0
 27 16  2  0
 28 27  1  0
 26 18  1  0
  9 19  2  0
 22 28  2  0
M  END


> <chembl_id>
CHEMBL1620794

> <chembl_pref_name>
NAFRONYL
