REMARK  Name = 
REMARK  8 active torsions:
REMARK  status: ('A' for Active; 'I' for Inactive)
REMARK    1  A    between atoms: C_1  and  C_2
REMARK    2  A    between atoms: C_1  and  O_4
REMARK    3  A    between atoms: C_2  and  O_10
REMARK    4  A    between atoms: C_3  and  C_18
REMARK    5  A    between atoms: O_4  and  C_8
REMARK    6  A    between atoms: O_10  and  C_21
REMARK    7  A    between atoms: C_18  and  C_22
REMARK    8  A    between atoms: C_21  and  C_22
REMARK                            x       y       z     vdW  Elec       q    Type
REMARK                         _______ _______ _______ _____ _____    ______ ____
ROOT
ATOM      1  C   UNL     1       1.729  -1.579   0.000  0.00  0.00    +0.000 C 
ATOM      2  C   UNL     1       1.142  -2.579   0.000  0.00  0.00    +0.000 C 
ATOM      3  C   UNL     1       2.717  -2.175   0.000  0.00  0.00    +0.000 C 
ENDROOT
BRANCH   1   4
ATOM      4  C   UNL     1       2.317  -0.567   0.000  0.00  0.00    +0.000 C 
ATOM      5  O   UNL     1       3.429  -0.554   0.000  0.00  0.00    +0.000 OA
BRANCH   4   6
ATOM      6  O   UNL     1       1.754   0.446   0.000  0.00  0.00    +0.000 OA
BRANCH   6   7
ATOM      7  C   UNL     1       0.600   0.446   0.000  0.00  0.00    +0.000 C 
BRANCH   7   8
ATOM      8  C   UNL     1       0.004   1.433   0.000  0.00  0.00    +0.000 C 
BRANCH   8   9
ATOM      9  C   UNL     1      -1.146   1.433   0.000  0.00  0.00    +0.000 C 
BRANCH   9  10
ATOM     10  C   UNL     1      -1.733   2.421   0.000  0.00  0.00    +0.000 C 
ATOM     11  N   UNL     1      -2.888   2.433   0.000  0.00  0.00    +0.000 N 
ATOM     12  O   UNL     1      -1.146   3.421   0.000  0.00  0.00    +0.000 OA
ATOM     13  C   UNL     1      -3.446   1.446   0.000  0.00  0.00    +0.000 C 
ATOM     14  C   UNL     1      -3.446   3.446   0.000  0.00  0.00    +0.000 C 
ENDBRANCH   9  10
ENDBRANCH   8   9
ENDBRANCH   7   8
ENDBRANCH   6   7
ENDBRANCH   4   6
ENDBRANCH   1   4
BRANCH   1  15
ATOM     15  O   UNL     1       0.717  -0.992   0.000  0.00  0.00    +0.000 OA
BRANCH  15  16
ATOM     16  C   UNL     1      -0.296  -1.579   0.000  0.00  0.00    +0.000 A 
ATOM     17  C   UNL     1      -2.312  -2.717   0.000  0.00  0.00    +0.000 A 
ATOM     18 CL   UNL     1      -3.337  -3.304   0.000  0.00  0.00    +0.000 Cl
ATOM     19  C   UNL     1      -1.308  -0.992   0.000  0.00  0.00    +0.000 A 
ATOM     20  C   UNL     1      -0.321  -2.737   0.000  0.00  0.00    +0.000 A 
ATOM     21  C   UNL     1      -1.308  -3.304   0.000  0.00  0.00    +0.000 A 
ATOM     22  C   UNL     1      -2.300  -1.554   0.000  0.00  0.00    +0.000 A 
ENDBRANCH  15  16
ENDBRANCH   1  15
TORSDOF 8
