REMARK  Name = 
REMARK  11 active torsions:
REMARK  status: ('A' for Active; 'I' for Inactive)
REMARK    1  A    between atoms: C_1  and  C_3
REMARK    2  A    between atoms: C_2  and  C_18
REMARK    3  A    between atoms: C_3  and  C_5
REMARK    4  A    between atoms: C_8  and  O_17
REMARK    5  A    between atoms: N_13  and  C_19
REMARK    6  A    between atoms: N_13  and  C_23
REMARK    7  A    between atoms: N_13  and  C_24
REMARK    8  A    between atoms: O_17  and  C_20
REMARK    9  A    between atoms: C_18  and  C_25
REMARK   10  A    between atoms: C_19  and  C_20
REMARK   11  A    between atoms: C_25  and  C_26
REMARK                            x       y       z     vdW  Elec       q    Type
REMARK                         _______ _______ _______ _____ _____    ______ ____
ROOT
ATOM      1  C   UNL     1       0.698  -0.538   0.000  0.00  0.00    +0.000 A 
ATOM      2  C   UNL     1       2.114  -1.372   0.000  0.00  0.00    +0.000 A 
ATOM      3  C   UNL     1       1.387  -1.779   0.000  0.00  0.00    +0.000 A 
ATOM      4  C   UNL     1       2.114  -0.543   0.000  0.00  0.00    +0.000 A 
ATOM      5  C   UNL     1       0.683  -1.357   0.000  0.00  0.00    +0.000 A 
ATOM      6  C   UNL     1       1.411  -0.131   0.000  0.00  0.00    +0.000 A 
ATOM      7  I   UNL     1       1.387  -2.603   0.000  0.00  0.00    +0.000 I 
ATOM      8  I   UNL     1       2.836  -0.136   0.000  0.00  0.00    +0.000 I 
ENDROOT
BRANCH   1   9
ATOM      9  C   UNL     1      -0.010  -0.121   0.000  0.00  0.00    +0.000 C 
ATOM     10  O   UNL     1      -0.737  -0.524   0.000  0.00  0.00    +0.000 OA
BRANCH   9  11
ATOM     11  C   UNL     1      -0.010   0.708   0.000  0.00  0.00    +0.000 A 
ATOM     12  C   UNL     1       0.480   1.377   0.000  0.00  0.00    +0.000 A 
ATOM     13  O   UNL     1      -0.010   2.046   0.000  0.00  0.00    +0.000 OA
ATOM     14  C   UNL     1      -0.795   0.955   0.000  0.00  0.00    +0.000 A 
ATOM     15  C   UNL     1      -0.795   1.784   0.000  0.00  0.00    +0.000 A 
ATOM     16  C   UNL     1      -1.508   0.538   0.000  0.00  0.00    +0.000 A 
ATOM     17  C   UNL     1      -1.508   2.191   0.000  0.00  0.00    +0.000 A 
ATOM     18  C   UNL     1      -2.220   0.955   0.000  0.00  0.00    +0.000 A 
ATOM     19  C   UNL     1      -2.220   1.774   0.000  0.00  0.00    +0.000 A 
BRANCH  12  20
ATOM     20  C   UNL     1       1.299   1.382   0.000  0.00  0.00    +0.000 C 
BRANCH  20  21
ATOM     21  C   UNL     1       1.706   2.104   0.000  0.00  0.00    +0.000 C 
BRANCH  21  22
ATOM     22  C   UNL     1       2.535   2.104   0.000  0.00  0.00    +0.000 C 
ATOM     23  C   UNL     1       2.943   2.821   0.000  0.00  0.00    +0.000 C 
ENDBRANCH  21  22
ENDBRANCH  20  21
ENDBRANCH  12  20
ENDBRANCH   9  11
ENDBRANCH   1   9
BRANCH   2  24
ATOM     24  O   UNL     1       2.821  -1.794   0.000  0.00  0.00    +0.000 OA
BRANCH  24  25
ATOM     25  C   UNL     1       3.539  -1.387   0.000  0.00  0.00    +0.000 C 
BRANCH  25  26
ATOM     26  C   UNL     1       4.252  -1.808   0.000  0.00  0.00    +0.000 C 
BRANCH  26  27
ATOM     27  N   UNL     1       4.964  -1.401   0.000  0.00  0.00    +0.000 NA
BRANCH  27  28
ATOM     28  C   UNL     1       5.677  -1.818   0.000  0.00  0.00    +0.000 C 
ATOM     29  C   UNL     1       6.389  -1.416   0.000  0.00  0.00    +0.000 C 
ENDBRANCH  27  28
BRANCH  27  30
ATOM     30  C   UNL     1       4.974  -0.572   0.000  0.00  0.00    +0.000 C 
ATOM     31  C   UNL     1       5.691  -0.174   0.000  0.00  0.00    +0.000 C 
ENDBRANCH  27  30
ENDBRANCH  26  27
ENDBRANCH  25  26
ENDBRANCH  24  25
ENDBRANCH   2  24
TORSDOF 11
