
     RDKit          2D

 21 24  0  0  0  0  0  0  0  0999 V2000
   -5.3808    2.2608    0.0000 C   0  0  0  0  0  0  0  0  0  0  0  0
   -5.9642    2.8442    0.0000 C   0  0  0  0  0  0  0  0  0  0  0  0
   -6.7892    2.8442    0.0000 C   0  0  0  0  0  0  0  0  0  0  0  0
   -7.3726    2.2608    0.0000 N   0  0  0  0  0  0  0  0  0  0  0  0
   -7.3726    1.4358    0.0000 C   0  0  0  0  0  0  0  0  0  0  0  0
   -6.7892    0.8524    0.0000 C   0  0  0  0  0  0  0  0  0  0  0  0
   -5.9642    0.8524    0.0000 C   0  0  0  0  0  0  0  0  0  0  0  0
   -5.3808    1.4358    0.0000 N   0  0  0  0  0  0  0  0  0  0  0  0
   -4.6663    1.0233    0.0000 C   0  0  0  0  0  0  0  0  0  0  0  0
   -3.9518    1.4358    0.0000 C   0  0  0  0  0  0  0  0  0  0  0  0
   -3.9518    2.2608    0.0000 C   0  0  0  0  0  0  0  0  0  0  0  0
   -4.6663    2.6733    0.0000 C   0  0  0  0  0  0  0  0  0  0  0  0
   -8.0871    1.0233    0.0000 C   0  0  0  0  0  0  0  0  0  0  0  0
   -8.8015    1.4358    0.0000 C   0  0  0  0  0  0  0  0  0  0  0  0
   -8.8015    2.2608    0.0000 C   0  0  0  0  0  0  0  0  0  0  0  0
   -8.0871    2.6733    0.0000 C   0  0  0  0  0  0  0  0  0  0  0  0
   -5.9454    1.8175    0.0000 C   0  0  0  0  0  0  0  0  0  0  0  0
   -7.1049    0.0902    0.0000 H   0  0  0  0  0  0  0  0  0  0  0  0
   -5.6485    3.6064    0.0000 H   0  0  0  0  0  0  0  0  0  0  0  0
   -7.5861    0.6389    0.0000 H   0  0  0  0  0  0  0  0  0  0  0  0
   -5.1672    3.0577    0.0000 H   0  0  0  0  0  0  0  0  0  0  0  0
  1  2  1  0
  2  3  1  0
  3  4  1  0
  5  6  1  0
  6  7  1  0
  7  8  1  0
  8  9  1  0
  1  8  1  0
  1 12  1  0
  9 10  1  0
 10 11  1  0
 11 12  1  0
  4 16  1  0
  4  5  1  0
  5 13  1  0
 13 14  1  0
 14 15  1  0
 15 16  1  0
  2 17  1  0
 17  6  1  0
  6 18  1  1
  2 19  1  1
  5 20  1  6
  1 21  1  1
M  END


> <chembl_id>
CHEMBL412873

> <chembl_pref_name>
SPARTEINE
