REMARK  Name = 
REMARK  10 active torsions:
REMARK  status: ('A' for Active; 'I' for Inactive)
REMARK    1  A    between atoms: C_6  and  O_7
REMARK    2  A    between atoms: O_7  and  C_10
REMARK    3  A    between atoms: C_8  and  O_14
REMARK    4  A    between atoms: C_9  and  O_15
REMARK    5  A    between atoms: C_10  and  C_11
REMARK    6  A    between atoms: C_11  and  C_21
REMARK    7  A    between atoms: N_13  and  C_21
REMARK    8  A    between atoms: N_13  and  C_24
REMARK    9  A    between atoms: O_15  and  C_25
REMARK   10  A    between atoms: C_24  and  C_25
REMARK                            x       y       z     vdW  Elec       q    Type
REMARK                         _______ _______ _______ _____ _____    ______ ____
ROOT
ATOM      1  C   UNL     1       6.454  -5.492   0.000  0.00  0.00    +0.000 C 
ENDROOT
BRANCH   1   2
ATOM      2  C   UNL     1       6.454  -6.192   0.000  0.00  0.00    +0.000 C 
ATOM      3  O   UNL     1       7.112  -6.617   0.000  0.00  0.00    +0.000 OA
BRANCH   2   4
ATOM      4  C   UNL     1       5.867  -6.567   0.000  0.00  0.00    +0.000 C 
BRANCH   4   5
ATOM      5  N   UNL     1       5.263  -6.192   0.000  0.00  0.00    +0.000 NA
BRANCH   5   6
ATOM      6  C   UNL     1       4.662  -6.567   0.000  0.00  0.00    +0.000 C 
BRANCH   6   7
ATOM      7  C   UNL     1       4.029  -6.204   0.000  0.00  0.00    +0.000 C 
BRANCH   7   8
ATOM      8  O   UNL     1       3.400  -6.579   0.000  0.00  0.00    +0.000 OA
BRANCH   8  10
ATOM      9  C   UNL     1       2.800  -5.517   0.000  0.00  0.00    +0.000 A 
ATOM     10  C   UNL     1       2.800  -6.204   0.000  0.00  0.00    +0.000 A 
ATOM     11  C   UNL     1       2.142  -5.162   0.000  0.00  0.00    +0.000 A 
ATOM     12  C   UNL     1       2.188  -6.600   0.000  0.00  0.00    +0.000 A 
ATOM     13  C   UNL     1       1.542  -5.554   0.000  0.00  0.00    +0.000 A 
ATOM     14  C   UNL     1       1.562  -6.254   0.000  0.00  0.00    +0.000 A 
BRANCH   9  15
ATOM     15  O   UNL     1       3.379  -5.129   0.000  0.00  0.00    +0.000 OA
ATOM     16  C   UNL     1       3.354  -4.454   0.000  0.00  0.00    +0.000 C 
ENDBRANCH   9  15
ENDBRANCH   8  10
ENDBRANCH   7   8
ENDBRANCH   6   7
ENDBRANCH   5   6
ENDBRANCH   4   5
ENDBRANCH   2   4
ENDBRANCH   1   2
BRANCH   1  17
ATOM     17  O   UNL     1       5.888  -5.162   0.000  0.00  0.00    +0.000 OA
BRANCH  17  23
ATOM     18  N   UNL     1       7.192  -3.200   0.000  0.00  0.00    +0.000 NA
ATOM     19  C   UNL     1       6.500  -4.092   0.000  0.00  0.00    +0.000 A 
ATOM     20  C   UNL     1       6.500  -3.404   0.000  0.00  0.00    +0.000 A 
ATOM     21  C   UNL     1       7.192  -4.317   0.000  0.00  0.00    +0.000 A 
ATOM     22  C   UNL     1       7.604  -3.750   0.000  0.00  0.00    +0.000 A 
ATOM     23  C   UNL     1       5.900  -4.463   0.000  0.00  0.00    +0.000 A 
ATOM     24  C   UNL     1       5.900  -3.038   0.000  0.00  0.00    +0.000 A 
ATOM     25  C   UNL     1       7.454  -4.950   0.000  0.00  0.00    +0.000 A 
ATOM     26  C   UNL     1       8.304  -3.817   0.000  0.00  0.00    +0.000 A 
ATOM     27  C   UNL     1       5.263  -3.392   0.000  0.00  0.00    +0.000 A 
ATOM     28  C   UNL     1       5.263  -4.117   0.000  0.00  0.00    +0.000 A 
ATOM     29  C   UNL     1       8.167  -5.037   0.000  0.00  0.00    +0.000 A 
ATOM     30  C   UNL     1       8.604  -4.463   0.000  0.00  0.00    +0.000 A 
ENDBRANCH  17  23
ENDBRANCH   1  17
TORSDOF 10
