MODEL 1
REMARK VINA RESULT:     -10.1      0.000      0.000
REMARK  Name = 
REMARK  7 active torsions:
REMARK  status: ('A' for Active; 'I' for Inactive)
REMARK    1  A    between atoms: C_3  and  O_7
REMARK    2  A    between atoms: C_4  and  O_7
REMARK    3  A    between atoms: C_4  and  C_13
REMARK    4  A    between atoms: C_9  and  C_14
REMARK    5  A    between atoms: C_13  and  C_25
REMARK    6  A    between atoms: C_14  and  C_23
REMARK    7  A    between atoms: C_17  and  C_23
REMARK                            x       y       z     vdW  Elec       q    Type
REMARK                         _______ _______ _______ _____ _____    ______ ____
ROOT
ATOM      1  C   UNL     1     135.688 156.514  85.515  0.00  0.00    +0.000 C 
ATOM      2  C   UNL     1     135.077 155.258  86.058  0.00  0.00    +0.000 C 
ATOM      3  C   UNL     1     134.290 154.359  85.157  0.00  0.00    +0.000 C 
ATOM      4  C   UNL     1     136.475 157.413  86.416  0.00  0.00    +0.000 C 
ATOM      5  C   UNL     1     135.510 156.869  84.073  0.00  0.00    +0.000 C 
ATOM      6  C   UNL     1     135.255 154.903  87.500  0.00  0.00    +0.000 C 
ATOM      7  C   UNL     1     136.660 157.061  87.876  0.00  0.00    +0.000 C 
ATOM      8  C   UNL     1     134.112 154.715  83.713  0.00  0.00    +0.000 C 
ATOM      9  C   UNL     1     136.049 155.805  88.419  0.00  0.00    +0.000 C 
ATOM     10  C   UNL     1     134.722 155.971  83.171  0.00  0.00    +0.000 C 
ATOM     11  C   UNL     1     136.190 155.517  89.575  0.00  0.00    +0.000 C 
ATOM     12  C   UNL     1     134.580 156.256  82.014  0.00  0.00    +0.000 C 
ENDROOT
BRANCH   3  13
ATOM     13  O   UNL     1     133.679 153.102  85.703  0.00  0.00    +0.000 OA
BRANCH  13  14
ATOM     14  C   UNL     1     133.967 151.781  85.050  0.00  0.00    +0.000 C 
ATOM     15  O   UNL     1     134.789 151.669  84.491  0.00  0.00    +0.000 OA
BRANCH  14  16
ATOM     16  C   UNL     1     133.022 150.630  85.234  0.00  0.00    +0.000 C 
ATOM     17  C   UNL     1     132.267 149.709  85.381  0.00  0.00    +0.000 C 
ATOM     18  C   UNL     1     132.438 150.336  84.478  0.00  0.00    +0.000 C 
BRANCH  16  19
ATOM     19  C   UNL     1     132.954 149.918  86.554  0.00  0.00    +0.000 C 
ATOM     20  C   UNL     1     132.090 149.524  86.866  0.00  0.00    +0.000 C 
ENDBRANCH  16  19
ENDBRANCH  14  16
ENDBRANCH  13  14
ENDBRANCH   3  13
BRANCH   6  21
ATOM     21  C   UNL     1     134.639 153.642  88.033  0.00  0.00    +0.000 C 
BRANCH  21  22
ATOM     22  C   UNL     1     134.228 153.557  89.475  0.00  0.00    +0.000 C 
BRANCH  22  26
ATOM     23  C   UNL     1     135.700 151.062  92.186  0.00  0.00    +0.000 C 
ATOM     24  O   UNL     1     135.445 152.316  91.404  0.00  0.00    +0.000 OA
ATOM     25  C   UNL     1     134.992 149.792  91.819  0.00  0.00    +0.000 C 
ATOM     26  C   UNL     1     134.481 152.301  90.255  0.00  0.00    +0.000 C 
ATOM     27  C   UNL     1     134.028 149.776  90.669  0.00  0.00    +0.000 C 
ATOM     28  O   UNL     1     136.471 151.074  93.106  0.00  0.00    +0.000 OA
ATOM     29  C   UNL     1     133.773 151.031  89.888  0.00  0.00    +0.000 C 
ATOM     30  O   UNL     1     133.461 148.760  90.375  0.00  0.00    +0.000 OA
ENDBRANCH  22  26
ENDBRANCH  21  22
ENDBRANCH   6  21
TORSDOF 7
ENDMDL
MODEL 2
REMARK VINA RESULT:      -9.3     54.418     57.859
REMARK  Name = 
REMARK  7 active torsions:
REMARK  status: ('A' for Active; 'I' for Inactive)
REMARK    1  A    between atoms: C_3  and  O_7
REMARK    2  A    between atoms: C_4  and  O_7
REMARK    3  A    between atoms: C_4  and  C_13
REMARK    4  A    between atoms: C_9  and  C_14
REMARK    5  A    between atoms: C_13  and  C_25
REMARK    6  A    between atoms: C_14  and  C_23
REMARK    7  A    between atoms: C_17  and  C_23
REMARK                            x       y       z     vdW  Elec       q    Type
REMARK                         _______ _______ _______ _____ _____    ______ ____
ROOT
ATOM      1  C   UNL     1     157.930 132.871 135.394  0.00  0.00    +0.000 C 
ATOM      2  C   UNL     1     157.034 132.278 136.439  0.00  0.00    +0.000 C 
ATOM      3  C   UNL     1     156.942 132.911 137.792  0.00  0.00    +0.000 C 
ATOM      4  C   UNL     1     158.021 132.238 134.041  0.00  0.00    +0.000 C 
ATOM      5  C   UNL     1     158.732 134.096 135.704  0.00  0.00    +0.000 C 
ATOM      6  C   UNL     1     156.232 131.054 136.129  0.00  0.00    +0.000 C 
ATOM      7  C   UNL     1     157.214 131.000 133.719  0.00  0.00    +0.000 C 
ATOM      8  C   UNL     1     157.745 134.136 138.102  0.00  0.00    +0.000 C 
ATOM      9  C   UNL     1     156.318 130.408 134.764  0.00  0.00    +0.000 C 
ATOM     10  C   UNL     1     158.640 134.729 137.058  0.00  0.00    +0.000 C 
ATOM     11  C   UNL     1     155.673 129.426 134.518  0.00  0.00    +0.000 C 
ATOM     12  C   UNL     1     159.284 135.711 137.306  0.00  0.00    +0.000 C 
ENDROOT
BRANCH   3  13
ATOM     13  O   UNL     1     156.044 132.315 138.836  0.00  0.00    +0.000 OA
BRANCH  13  14
ATOM     14  C   UNL     1     154.928 133.130 139.421  0.00  0.00    +0.000 C 
ATOM     15  O   UNL     1     154.773 134.066 139.104  0.00  0.00    +0.000 OA
BRANCH  14  16
ATOM     16  C   UNL     1     154.043 132.542 140.482  0.00  0.00    +0.000 C 
ATOM     17  C   UNL     1     153.336 132.072 141.330  0.00  0.00    +0.000 C 
ATOM     18  C   UNL     1     153.706 133.117 141.227  0.00  0.00    +0.000 C 
BRANCH  16  19
ATOM     19  C   UNL     1     153.665 131.090 140.424  0.00  0.00    +0.000 C 
ATOM     20  C   UNL     1     153.265 130.645 141.225  0.00  0.00    +0.000 C 
ENDBRANCH  16  19
ENDBRANCH  14  16
ENDBRANCH  13  14
ENDBRANCH   3  13
BRANCH   6  21
ATOM     21  C   UNL     1     155.338 130.469 137.183  0.00  0.00    +0.000 C 
BRANCH  21  22
ATOM     22  C   UNL     1     153.893 130.195 136.877  0.00  0.00    +0.000 C 
BRANCH  22  26
ATOM     23  C   UNL     1     152.568 133.807 135.911  0.00  0.00    +0.000 C 
ATOM     24  O   UNL     1     153.434 132.718 136.469  0.00  0.00    +0.000 OA
ATOM     25  C   UNL     1     151.292 133.463 135.202  0.00  0.00    +0.000 C 
ATOM     26  C   UNL     1     153.025 131.283 136.318  0.00  0.00    +0.000 C 
ATOM     27  C   UNL     1     150.882 132.027 135.050  0.00  0.00    +0.000 C 
ATOM     28  O   UNL     1     152.895 134.956 136.032  0.00  0.00    +0.000 OA
ATOM     29  C   UNL     1     151.750 130.938 135.608  0.00  0.00    +0.000 C 
ATOM     30  O   UNL     1     149.862 131.751 134.483  0.00  0.00    +0.000 OA
ENDBRANCH  22  26
ENDBRANCH  21  22
ENDBRANCH   6  21
TORSDOF 7
ENDMDL
MODEL 3
REMARK VINA RESULT:      -9.0     29.908     32.270
REMARK  Name = 
REMARK  7 active torsions:
REMARK  status: ('A' for Active; 'I' for Inactive)
REMARK    1  A    between atoms: C_3  and  O_7
REMARK    2  A    between atoms: C_4  and  O_7
REMARK    3  A    between atoms: C_4  and  C_13
REMARK    4  A    between atoms: C_9  and  C_14
REMARK    5  A    between atoms: C_13  and  C_25
REMARK    6  A    between atoms: C_14  and  C_23
REMARK    7  A    between atoms: C_17  and  C_23
REMARK                            x       y       z     vdW  Elec       q    Type
REMARK                         _______ _______ _______ _____ _____    ______ ____
ROOT
ATOM      1  C   UNL     1     162.073 143.704  90.812  0.00  0.00    +0.000 C 
ATOM      2  C   UNL     1     163.134 144.761  90.832  0.00  0.00    +0.000 C 
ATOM      3  C   UNL     1     164.401 144.535  91.596  0.00  0.00    +0.000 C 
ATOM      4  C   UNL     1     160.806 143.930  90.048  0.00  0.00    +0.000 C 
ATOM      5  C   UNL     1     162.281 142.422  91.554  0.00  0.00    +0.000 C 
ATOM      6  C   UNL     1     162.926 146.044  90.090  0.00  0.00    +0.000 C 
ATOM      7  C   UNL     1     160.588 145.223  89.294  0.00  0.00    +0.000 C 
ATOM      8  C   UNL     1     164.609 143.253  92.339  0.00  0.00    +0.000 C 
ATOM      9  C   UNL     1     161.648 146.281  89.315  0.00  0.00    +0.000 C 
ATOM     10  C   UNL     1     163.548 142.195  92.319  0.00  0.00    +0.000 C 
ATOM     11  C   UNL     1     161.485 147.311  88.720  0.00  0.00    +0.000 C 
ATOM     12  C   UNL     1     163.714 141.167  92.914  0.00  0.00    +0.000 C 
ENDROOT
BRANCH   3  13
ATOM     13  O   UNL     1     165.462 145.597  91.615  0.00  0.00    +0.000 OA
BRANCH  13  14
ATOM     14  C   UNL     1     165.880 146.218  92.916  0.00  0.00    +0.000 C 
ATOM     15  O   UNL     1     165.662 145.763  93.779  0.00  0.00    +0.000 OA
BRANCH  14  16
ATOM     16  C   UNL     1     166.624 147.522  92.921  0.00  0.00    +0.000 C 
ATOM     17  C   UNL     1     167.220 148.563  92.926  0.00  0.00    +0.000 C 
ATOM     18  C   UNL     1     167.613 147.532  93.068  0.00  0.00    +0.000 C 
BRANCH  16  19
ATOM     19  C   UNL     1     165.884 148.810  92.706  0.00  0.00    +0.000 C 
ATOM     20  C   UNL     1     166.383 149.677  92.689  0.00  0.00    +0.000 C 
ENDBRANCH  16  19
ENDBRANCH  14  16
ENDBRANCH  13  14
ENDBRANCH   3  13
BRANCH   6  21
ATOM     21  C   UNL     1     163.996 147.096  90.117  0.00  0.00    +0.000 C 
BRANCH  21  22
ATOM     22  C   UNL     1     164.924 147.256  88.948  0.00  0.00    +0.000 C 
BRANCH  22  26
ATOM     23  C   UNL     1     167.615 150.150  89.300  0.00  0.00    +0.000 C 
ATOM     24  O   UNL     1     166.299 149.451  89.124  0.00  0.00    +0.000 OA
ATOM     25  C   UNL     1     168.872 149.351  89.476  0.00  0.00    +0.000 C 
ATOM     26  C   UNL     1     166.241 147.952  89.124  0.00  0.00    +0.000 C 
ATOM     27  C   UNL     1     168.813 147.852  89.476  0.00  0.00    +0.000 C 
ATOM     28  O   UNL     1     167.662 151.349  89.300  0.00  0.00    +0.000 OA
ATOM     29  C   UNL     1     167.498 147.153  89.300  0.00  0.00    +0.000 C 
ATOM     30  O   UNL     1     169.819 147.212  89.616  0.00  0.00    +0.000 OA
ENDBRANCH  22  26
ENDBRANCH  21  22
ENDBRANCH   6  21
TORSDOF 7
ENDMDL
MODEL 4
REMARK VINA RESULT:      -8.9     29.695     31.747
REMARK  Name = 
REMARK  7 active torsions:
REMARK  status: ('A' for Active; 'I' for Inactive)
REMARK    1  A    between atoms: C_3  and  O_7
REMARK    2  A    between atoms: C_4  and  O_7
REMARK    3  A    between atoms: C_4  and  C_13
REMARK    4  A    between atoms: C_9  and  C_14
REMARK    5  A    between atoms: C_13  and  C_25
REMARK    6  A    between atoms: C_14  and  C_23
REMARK    7  A    between atoms: C_17  and  C_23
REMARK                            x       y       z     vdW  Elec       q    Type
REMARK                         _______ _______ _______ _____ _____    ______ ____
ROOT
ATOM      1  C   UNL     1     161.090 144.741  89.947  0.00  0.00    +0.000 C 
ATOM      2  C   UNL     1     162.494 145.117  90.310  0.00  0.00    +0.000 C 
ATOM      3  C   UNL     1     163.067 146.416  89.838  0.00  0.00    +0.000 C 
ATOM      4  C   UNL     1     160.518 143.442  90.420  0.00  0.00    +0.000 C 
ATOM      5  C   UNL     1     160.261 145.665  89.112  0.00  0.00    +0.000 C 
ATOM      6  C   UNL     1     163.324 144.193  91.145  0.00  0.00    +0.000 C 
ATOM      7  C   UNL     1     161.349 142.502  91.264  0.00  0.00    +0.000 C 
ATOM      8  C   UNL     1     162.238 147.341  89.002  0.00  0.00    +0.000 C 
ATOM      9  C   UNL     1     162.753 142.877  91.627  0.00  0.00    +0.000 C 
ATOM     10  C   UNL     1     160.834 146.965  88.639  0.00  0.00    +0.000 C 
ATOM     11  C   UNL     1     163.421 142.138  92.297  0.00  0.00    +0.000 C 
ATOM     12  C   UNL     1     160.168 147.706  87.970  0.00  0.00    +0.000 C 
ENDROOT
BRANCH   3  13
ATOM     13  O   UNL     1     164.474 146.790  90.203  0.00  0.00    +0.000 OA
BRANCH  13  14
ATOM     14  C   UNL     1     165.418 147.287  89.147  0.00  0.00    +0.000 C 
ATOM     15  O   UNL     1     165.065 147.568  88.254  0.00  0.00    +0.000 OA
BRANCH  14  16
ATOM     16  C   UNL     1     166.890 147.364  89.430  0.00  0.00    +0.000 C 
ATOM     17  C   UNL     1     168.067 147.426  89.656  0.00  0.00    +0.000 C 
ATOM     18  C   UNL     1     167.360 148.246  89.394  0.00  0.00    +0.000 C 
BRANCH  16  19
ATOM     19  C   UNL     1     167.656 146.118  89.766  0.00  0.00    +0.000 C 
ATOM     20  C   UNL     1     168.522 146.181  90.262  0.00  0.00    +0.000 C 
ENDBRANCH  16  19
ENDBRANCH  14  16
ENDBRANCH  13  14
ENDBRANCH   3  13
BRANCH   6  21
ATOM     21  C   UNL     1     164.729 144.579  91.503  0.00  0.00    +0.000 C 
BRANCH  21  22
ATOM     22  C   UNL     1     165.066 144.971  92.913  0.00  0.00    +0.000 C 
BRANCH  22  26
ATOM     23  C   UNL     1     168.594 146.447  93.970  0.00  0.00    +0.000 C 
ATOM     24  O   UNL     1     167.488 145.469  93.705  0.00  0.00    +0.000 OA
ATOM     25  C   UNL     1     168.382 147.908  93.706  0.00  0.00    +0.000 C 
ATOM     26  C   UNL     1     166.170 145.951  93.177  0.00  0.00    +0.000 C 
ATOM     27  C   UNL     1     167.064 148.391  93.177  0.00  0.00    +0.000 C 
ATOM     28  O   UNL     1     169.648 146.060  94.393  0.00  0.00    +0.000 OA
ATOM     29  C   UNL     1     165.958 147.412  92.913  0.00  0.00    +0.000 C 
ATOM     30  O   UNL     1     166.894 149.560  92.966  0.00  0.00    +0.000 OA
ENDBRANCH  22  26
ENDBRANCH  21  22
ENDBRANCH   6  21
TORSDOF 7
ENDMDL
MODEL 5
REMARK VINA RESULT:      -8.9     83.147     87.529
REMARK  Name = 
REMARK  7 active torsions:
REMARK  status: ('A' for Active; 'I' for Inactive)
REMARK    1  A    between atoms: C_3  and  O_7
REMARK    2  A    between atoms: C_4  and  O_7
REMARK    3  A    between atoms: C_4  and  C_13
REMARK    4  A    between atoms: C_9  and  C_14
REMARK    5  A    between atoms: C_13  and  C_25
REMARK    6  A    between atoms: C_14  and  C_23
REMARK    7  A    between atoms: C_17  and  C_23
REMARK                            x       y       z     vdW  Elec       q    Type
REMARK                         _______ _______ _______ _____ _____    ______ ____
ROOT
ATOM      1  C   UNL     1     117.820 159.688 172.878  0.00  0.00    +0.000 C 
ATOM      2  C   UNL     1     116.516 159.028 172.552  0.00  0.00    +0.000 C 
ATOM      3  C   UNL     1     115.716 159.492 171.375  0.00  0.00    +0.000 C 
ATOM      4  C   UNL     1     118.620 159.225 174.054  0.00  0.00    +0.000 C 
ATOM      5  C   UNL     1     118.324 160.811 172.026  0.00  0.00    +0.000 C 
ATOM      6  C   UNL     1     116.012 157.905 173.403  0.00  0.00    +0.000 C 
ATOM      7  C   UNL     1     118.119 158.090 174.921  0.00  0.00    +0.000 C 
ATOM      8  C   UNL     1     116.219 160.615 170.523  0.00  0.00    +0.000 C 
ATOM      9  C   UNL     1     116.814 157.430 174.595  0.00  0.00    +0.000 C 
ATOM     10  C   UNL     1     117.524 161.275 170.849  0.00  0.00    +0.000 C 
ATOM     11  C   UNL     1     116.408 156.529 175.276  0.00  0.00    +0.000 C 
ATOM     12  C   UNL     1     117.928 162.176 170.166  0.00  0.00    +0.000 C 
ENDROOT
BRANCH   3  13
ATOM     13  O   UNL     1     114.409 158.829 171.051  0.00  0.00    +0.000 OA
BRANCH  13  14
ATOM     14  C   UNL     1     114.079 158.471 169.631  0.00  0.00    +0.000 C 
ATOM     15  O   UNL     1     113.395 159.000 169.129  0.00  0.00    +0.000 OA
BRANCH  14  16
ATOM     16  C   UNL     1     114.776 157.321 168.965  0.00  0.00    +0.000 C 
ATOM     17  C   UNL     1     115.334 156.401 168.433  0.00  0.00    +0.000 C 
ATOM     18  C   UNL     1     115.302 156.670 169.512  0.00  0.00    +0.000 C 
BRANCH  16  19
ATOM     19  C   UNL     1     114.685 157.147 167.477  0.00  0.00    +0.000 C 
ATOM     20  C   UNL     1     114.992 156.295 167.052  0.00  0.00    +0.000 C 
ENDBRANCH  16  19
ENDBRANCH  14  16
ENDBRANCH  13  14
ENDBRANCH   3  13
BRANCH   6  21
ATOM     21  C   UNL     1     114.704 157.252 173.068  0.00  0.00    +0.000 C 
BRANCH  21  22
ATOM     22  C   UNL     1     113.471 157.588 173.857  0.00  0.00    +0.000 C 
BRANCH  22  26
ATOM     23  C   UNL     1     113.937 160.756 176.200  0.00  0.00    +0.000 C 
ATOM     24  O   UNL     1     114.107 159.381 175.624  0.00  0.00    +0.000 OA
ATOM     25  C   UNL     1     112.960 161.712 175.584  0.00  0.00    +0.000 C 
ATOM     26  C   UNL     1     113.299 158.963 174.431  0.00  0.00    +0.000 C 
ATOM     27  C   UNL     1     112.152 161.295 174.390  0.00  0.00    +0.000 C 
ATOM     28  O   UNL     1     114.583 161.090 177.154  0.00  0.00    +0.000 OA
ATOM     29  C   UNL     1     112.323 159.920 173.815  0.00  0.00    +0.000 C 
ATOM     30  O   UNL     1     111.371 162.059 173.897  0.00  0.00    +0.000 OA
ENDBRANCH  22  26
ENDBRANCH  21  22
ENDBRANCH   6  21
TORSDOF 7
ENDMDL
MODEL 6
REMARK VINA RESULT:      -8.8      2.356      6.250
REMARK  Name = 
REMARK  7 active torsions:
REMARK  status: ('A' for Active; 'I' for Inactive)
REMARK    1  A    between atoms: C_3  and  O_7
REMARK    2  A    between atoms: C_4  and  O_7
REMARK    3  A    between atoms: C_4  and  C_13
REMARK    4  A    between atoms: C_9  and  C_14
REMARK    5  A    between atoms: C_13  and  C_25
REMARK    6  A    between atoms: C_14  and  C_23
REMARK    7  A    between atoms: C_17  and  C_23
REMARK                            x       y       z     vdW  Elec       q    Type
REMARK                         _______ _______ _______ _____ _____    ______ ____
ROOT
ATOM      1  C   UNL     1     139.071 157.427  88.970  0.00  0.00    +0.000 C 
ATOM      2  C   UNL     1     137.955 156.456  88.733  0.00  0.00    +0.000 C 
ATOM      3  C   UNL     1     137.902 155.174  89.502  0.00  0.00    +0.000 C 
ATOM      4  C   UNL     1     139.124 158.709  88.201  0.00  0.00    +0.000 C 
ATOM      5  C   UNL     1     140.133 157.114  89.978  0.00  0.00    +0.000 C 
ATOM      6  C   UNL     1     136.894 156.769  87.725  0.00  0.00    +0.000 C 
ATOM      7  C   UNL     1     138.056 159.033  87.180  0.00  0.00    +0.000 C 
ATOM      8  C   UNL     1     138.964 154.861  90.510  0.00  0.00    +0.000 C 
ATOM      9  C   UNL     1     136.940 158.063  86.942  0.00  0.00    +0.000 C 
ATOM     10  C   UNL     1     140.080 155.832  90.748  0.00  0.00    +0.000 C 
ATOM     11  C   UNL     1     136.087 158.311  86.135  0.00  0.00    +0.000 C 
ATOM     12  C   UNL     1     140.931 155.581  91.556  0.00  0.00    +0.000 C 
ENDROOT
BRANCH   3  13
ATOM     13  O   UNL     1     136.783 154.204  89.262  0.00  0.00    +0.000 OA
BRANCH  13  14
ATOM     14  C   UNL     1     135.917 153.757  90.404  0.00  0.00    +0.000 C 
ATOM     15  O   UNL     1     136.050 152.852  90.808  0.00  0.00    +0.000 OA
BRANCH  14  16
ATOM     16  C   UNL     1     134.852 154.668  90.940  0.00  0.00    +0.000 C 
ATOM     17  C   UNL     1     134.001 155.398  91.369  0.00  0.00    +0.000 C 
ATOM     18  C   UNL     1     135.083 155.603  91.211  0.00  0.00    +0.000 C 
BRANCH  16  19
ATOM     19  C   UNL     1     133.439 154.178  91.071  0.00  0.00    +0.000 C 
ATOM     20  C   UNL     1     132.726 154.791  91.411  0.00  0.00    +0.000 C 
ENDBRANCH  16  19
ENDBRANCH  14  16
ENDBRANCH  13  14
ENDBRANCH   3  13
BRANCH   6  21
ATOM     21  C   UNL     1     135.780 155.789  87.495  0.00  0.00    +0.000 C 
BRANCH  21  22
ATOM     22  C   UNL     1     135.747 154.972  86.236  0.00  0.00    +0.000 C 
BRANCH  22  26
ATOM     23  C   UNL     1     134.218 151.553  84.926  0.00  0.00    +0.000 C 
ATOM     24  O   UNL     1     135.032 152.811  84.986  0.00  0.00    +0.000 OA
ATOM     25  C   UNL     1     133.302 151.198  86.059  0.00  0.00    +0.000 C 
ATOM     26  C   UNL     1     134.931 153.714  86.179  0.00  0.00    +0.000 C 
ATOM     27  C   UNL     1     133.200 152.101  87.253  0.00  0.00    +0.000 C 
ATOM     28  O   UNL     1     134.298 150.830  83.971  0.00  0.00    +0.000 OA
ATOM     29  C   UNL     1     134.015 153.359  87.312  0.00  0.00    +0.000 C 
ATOM     30  O   UNL     1     132.468 151.817  88.160  0.00  0.00    +0.000 OA
ENDBRANCH  22  26
ENDBRANCH  21  22
ENDBRANCH   6  21
TORSDOF 7
ENDMDL
MODEL 7
REMARK VINA RESULT:      -8.5     50.440     53.182
REMARK  Name = 
REMARK  7 active torsions:
REMARK  status: ('A' for Active; 'I' for Inactive)
REMARK    1  A    between atoms: C_3  and  O_7
REMARK    2  A    between atoms: C_4  and  O_7
REMARK    3  A    between atoms: C_4  and  C_13
REMARK    4  A    between atoms: C_9  and  C_14
REMARK    5  A    between atoms: C_13  and  C_25
REMARK    6  A    between atoms: C_14  and  C_23
REMARK    7  A    between atoms: C_17  and  C_23
REMARK                            x       y       z     vdW  Elec       q    Type
REMARK                         _______ _______ _______ _____ _____    ______ ____
ROOT
ATOM      1  C   UNL     1     102.486 120.374 114.824  0.00  0.00    +0.000 C 
ATOM      2  C   UNL     1     103.420 120.857 115.891  0.00  0.00    +0.000 C 
ATOM      3  C   UNL     1     104.861 120.454 115.862  0.00  0.00    +0.000 C 
ATOM      4  C   UNL     1     101.045 120.777 114.854  0.00  0.00    +0.000 C 
ATOM      5  C   UNL     1     102.994 119.490 113.729  0.00  0.00    +0.000 C 
ATOM      6  C   UNL     1     102.912 121.741 116.987  0.00  0.00    +0.000 C 
ATOM      7  C   UNL     1     100.522 121.670 115.958  0.00  0.00    +0.000 C 
ATOM      8  C   UNL     1     105.370 119.570 114.766  0.00  0.00    +0.000 C 
ATOM      9  C   UNL     1     101.457 122.152 117.025  0.00  0.00    +0.000 C 
ATOM     10  C   UNL     1     104.435 119.087 113.699  0.00  0.00    +0.000 C 
ATOM     11  C   UNL     1     101.052 122.862 117.905  0.00  0.00    +0.000 C 
ATOM     12  C   UNL     1     104.842 118.379 112.821  0.00  0.00    +0.000 C 
ENDROOT
BRANCH   3  13
ATOM     13  O   UNL     1     105.795 120.939 116.932  0.00  0.00    +0.000 OA
BRANCH  13  14
ATOM     14  C   UNL     1     106.820 121.989 116.616  0.00  0.00    +0.000 C 
ATOM     15  O   UNL     1     107.084 122.160 115.667  0.00  0.00    +0.000 OA
BRANCH  14  16
ATOM     16  C   UNL     1     107.448 122.783 117.724  0.00  0.00    +0.000 C 
ATOM     17  C   UNL     1     107.951 123.418 118.610  0.00  0.00    +0.000 C 
ATOM     18  C   UNL     1     108.292 122.462 118.152  0.00  0.00    +0.000 C 
BRANCH  16  19
ATOM     19  C   UNL     1     106.809 124.059 118.190  0.00  0.00    +0.000 C 
ATOM     20  C   UNL     1     107.327 124.702 118.754  0.00  0.00    +0.000 C 
ENDBRANCH  16  19
ENDBRANCH  14  16
ENDBRANCH  13  14
ENDBRANCH   3  13
BRANCH   6  21
ATOM     21  C   UNL     1     103.857 122.218 118.051  0.00  0.00    +0.000 C 
BRANCH  21  22
ATOM     22  C   UNL     1     103.957 121.478 119.354  0.00  0.00    +0.000 C 
BRANCH  22  26
ATOM     23  C   UNL     1     103.733 123.880 122.504  0.00  0.00    +0.000 C 
ATOM     24  O   UNL     1     103.357 123.145 121.252  0.00  0.00    +0.000 OA
ATOM     25  C   UNL     1     105.090 123.681 123.111  0.00  0.00    +0.000 C 
ATOM     26  C   UNL     1     104.337 122.212 120.606  0.00  0.00    +0.000 C 
ATOM     27  C   UNL     1     106.072 122.747 122.465  0.00  0.00    +0.000 C 
ATOM     28  O   UNL     1     102.949 124.627 123.021  0.00  0.00    +0.000 OA
ATOM     29  C   UNL     1     105.694 122.013 121.213  0.00  0.00    +0.000 C 
ATOM     30  O   UNL     1     107.157 122.588 122.950  0.00  0.00    +0.000 OA
ENDBRANCH  22  26
ENDBRANCH  21  22
ENDBRANCH   6  21
TORSDOF 7
ENDMDL
MODEL 8
REMARK VINA RESULT:      -8.5     52.182     57.209
REMARK  Name = 
REMARK  7 active torsions:
REMARK  status: ('A' for Active; 'I' for Inactive)
REMARK    1  A    between atoms: C_3  and  O_7
REMARK    2  A    between atoms: C_4  and  O_7
REMARK    3  A    between atoms: C_4  and  C_13
REMARK    4  A    between atoms: C_9  and  C_14
REMARK    5  A    between atoms: C_13  and  C_25
REMARK    6  A    between atoms: C_14  and  C_23
REMARK    7  A    between atoms: C_17  and  C_23
REMARK                            x       y       z     vdW  Elec       q    Type
REMARK                         _______ _______ _______ _____ _____    ______ ____
ROOT
ATOM      1  C   UNL     1     158.311 131.927 135.619  0.00  0.00    +0.000 C 
ATOM      2  C   UNL     1     156.831 131.833 135.828  0.00  0.00    +0.000 C 
ATOM      3  C   UNL     1     156.262 131.935 137.208  0.00  0.00    +0.000 C 
ATOM      4  C   UNL     1     158.879 131.825 134.238  0.00  0.00    +0.000 C 
ATOM      5  C   UNL     1     159.221 132.123 136.790  0.00  0.00    +0.000 C 
ATOM      6  C   UNL     1     155.921 131.637 134.656  0.00  0.00    +0.000 C 
ATOM      7  C   UNL     1     157.967 131.627 133.048  0.00  0.00    +0.000 C 
ATOM      8  C   UNL     1     157.172 132.131 138.381  0.00  0.00    +0.000 C 
ATOM      9  C   UNL     1     156.487 131.533 133.257  0.00  0.00    +0.000 C 
ATOM     10  C   UNL     1     158.653 132.225 138.172  0.00  0.00    +0.000 C 
ATOM     11  C   UNL     1     155.754 131.376 132.319  0.00  0.00    +0.000 C 
ATOM     12  C   UNL     1     159.382 132.383 139.111  0.00  0.00    +0.000 C 
ENDROOT
BRANCH   3  13
ATOM     13  O   UNL     1     154.778 131.840 137.415  0.00  0.00    +0.000 OA
BRANCH  13  14
ATOM     14  C   UNL     1     154.210 130.773 138.304  0.00  0.00    +0.000 C 
ATOM     15  O   UNL     1     154.076 129.847 137.951  0.00  0.00    +0.000 OA
BRANCH  14  16
ATOM     16  C   UNL     1     153.843 131.094 139.723  0.00  0.00    +0.000 C 
ATOM     17  C   UNL     1     153.549 131.351 140.858  0.00  0.00    +0.000 C 
ATOM     18  C   UNL     1     153.638 130.356 140.366  0.00  0.00    +0.000 C 
BRANCH  16  19
ATOM     19  C   UNL     1     153.783 132.524 140.179  0.00  0.00    +0.000 C 
ATOM     20  C   UNL     1     153.746 132.737 141.155  0.00  0.00    +0.000 C 
ENDBRANCH  16  19
ENDBRANCH  14  16
ENDBRANCH  13  14
ENDBRANCH   3  13
BRANCH   6  21
ATOM     21  C   UNL     1     154.439 131.544 134.877  0.00  0.00    +0.000 C 
BRANCH  21  22
ATOM     22  C   UNL     1     153.552 132.703 134.523  0.00  0.00    +0.000 C 
BRANCH  22  26
ATOM     23  C   UNL     1     149.866 133.173 133.132  0.00  0.00    +0.000 C 
ATOM     24  O   UNL     1     151.331 133.391 133.366  0.00  0.00    +0.000 OA
ATOM     25  C   UNL     1     149.155 132.047 133.822  0.00  0.00    +0.000 C 
ATOM     26  C   UNL     1     152.086 132.482 134.290  0.00  0.00    +0.000 C 
ATOM     27  C   UNL     1     149.910 131.138 134.746  0.00  0.00    +0.000 C 
ATOM     28  O   UNL     1     149.261 133.900 132.392  0.00  0.00    +0.000 OA
ATOM     29  C   UNL     1     151.376 131.356 134.980  0.00  0.00    +0.000 C 
ATOM     30  O   UNL     1     149.342 130.237 135.299  0.00  0.00    +0.000 OA
ENDBRANCH  22  26
ENDBRANCH  21  22
ENDBRANCH   6  21
TORSDOF 7
ENDMDL
MODEL 9
REMARK VINA RESULT:      -8.5     90.025     94.793
REMARK  Name = 
REMARK  7 active torsions:
REMARK  status: ('A' for Active; 'I' for Inactive)
REMARK    1  A    between atoms: C_3  and  O_7
REMARK    2  A    between atoms: C_4  and  O_7
REMARK    3  A    between atoms: C_4  and  C_13
REMARK    4  A    between atoms: C_9  and  C_14
REMARK    5  A    between atoms: C_13  and  C_25
REMARK    6  A    between atoms: C_14  and  C_23
REMARK    7  A    between atoms: C_17  and  C_23
REMARK                            x       y       z     vdW  Elec       q    Type
REMARK                         _______ _______ _______ _____ _____    ______ ____
ROOT
ATOM      1  C   UNL     1      97.654 133.253 175.596  0.00  0.00    +0.000 C 
ATOM      2  C   UNL     1      98.445 132.651 174.476  0.00  0.00    +0.000 C 
ATOM      3  C   UNL     1      99.338 131.478 174.736  0.00  0.00    +0.000 C 
ATOM      4  C   UNL     1      96.762 134.426 175.336  0.00  0.00    +0.000 C 
ATOM      5  C   UNL     1      97.756 132.682 176.975  0.00  0.00    +0.000 C 
ATOM      6  C   UNL     1      98.343 133.222 173.096  0.00  0.00    +0.000 C 
ATOM      7  C   UNL     1      96.653 135.010 173.945  0.00  0.00    +0.000 C 
ATOM      8  C   UNL     1      99.440 130.906 176.116  0.00  0.00    +0.000 C 
ATOM      9  C   UNL     1      97.444 134.407 172.824  0.00  0.00    +0.000 C 
ATOM     10  C   UNL     1      98.649 131.508 177.236  0.00  0.00    +0.000 C 
ATOM     11  C   UNL     1      97.364 134.863 171.717  0.00  0.00    +0.000 C 
ATOM     12  C   UNL     1      98.731 131.050 178.342  0.00  0.00    +0.000 C 
ENDROOT
BRANCH   3  13
ATOM     13  O   UNL     1     100.129 130.876 173.611  0.00  0.00    +0.000 OA
BRANCH  13  14
ATOM     14  C   UNL     1     101.506 130.335 173.867  0.00  0.00    +0.000 C 
ATOM     15  O   UNL     1     101.662 129.348 173.871  0.00  0.00    +0.000 OA
BRANCH  14  16
ATOM     16  C   UNL     1     102.649 131.276 174.115  0.00  0.00    +0.000 C 
ATOM     17  C   UNL     1     103.562 132.029 174.313  0.00  0.00    +0.000 C 
ATOM     18  C   UNL     1     103.124 131.699 173.344  0.00  0.00    +0.000 C 
BRANCH  16  19
ATOM     19  C   UNL     1     103.078 131.583 175.521  0.00  0.00    +0.000 C 
ATOM     20  C   UNL     1     103.694 132.350 175.700  0.00  0.00    +0.000 C 
ENDBRANCH  16  19
ENDBRANCH  14  16
ENDBRANCH  13  14
ENDBRANCH   3  13
BRANCH   6  21
ATOM     21  C   UNL     1      99.141 132.610 171.981  0.00  0.00    +0.000 C 
BRANCH  21  22
ATOM     22  C   UNL     1      98.439 131.934 170.839  0.00  0.00    +0.000 C 
BRANCH  22  26
ATOM     23  C   UNL     1      98.091 132.276 166.902  0.00  0.00    +0.000 C 
ATOM     24  O   UNL     1      97.908 131.772 168.303  0.00  0.00    +0.000 OA
ATOM     25  C   UNL     1      98.989 133.448 166.637  0.00  0.00    +0.000 C 
ATOM     26  C   UNL     1      98.623 132.440 169.439  0.00  0.00    +0.000 C 
ATOM     27  C   UNL     1      99.704 134.116 167.774  0.00  0.00    +0.000 C 
ATOM     28  O   UNL     1      97.518 131.742 165.992  0.00  0.00    +0.000 OA
ATOM     29  C   UNL     1      99.521 133.611 169.174  0.00  0.00    +0.000 C 
ATOM     30  O   UNL     1     100.423 135.053 167.562  0.00  0.00    +0.000 OA
ENDBRANCH  22  26
ENDBRANCH  21  22
ENDBRANCH   6  21
TORSDOF 7
ENDMDL
MODEL 10
REMARK VINA RESULT:      -8.5     53.105     57.752
REMARK  Name = 
REMARK  7 active torsions:
REMARK  status: ('A' for Active; 'I' for Inactive)
REMARK    1  A    between atoms: C_3  and  O_7
REMARK    2  A    between atoms: C_4  and  O_7
REMARK    3  A    between atoms: C_4  and  C_13
REMARK    4  A    between atoms: C_9  and  C_14
REMARK    5  A    between atoms: C_13  and  C_25
REMARK    6  A    between atoms: C_14  and  C_23
REMARK    7  A    between atoms: C_17  and  C_23
REMARK                            x       y       z     vdW  Elec       q    Type
REMARK                         _______ _______ _______ _____ _____    ______ ____
ROOT
ATOM      1  C   UNL     1     159.063 132.152 135.929  0.00  0.00    +0.000 C 
ATOM      2  C   UNL     1     157.626 131.954 136.305  0.00  0.00    +0.000 C 
ATOM      3  C   UNL     1     157.199 132.105 137.731  0.00  0.00    +0.000 C 
ATOM      4  C   UNL     1     159.490 132.001 134.503  0.00  0.00    +0.000 C 
ATOM      5  C   UNL     1     160.070 132.500 136.979  0.00  0.00    +0.000 C 
ATOM      6  C   UNL     1     156.619 131.605 135.255  0.00  0.00    +0.000 C 
ATOM      7  C   UNL     1     158.479 131.649 133.434  0.00  0.00    +0.000 C 
ATOM      8  C   UNL     1     158.206 132.453 138.783  0.00  0.00    +0.000 C 
ATOM      9  C   UNL     1     157.042 131.451 133.810  0.00  0.00    +0.000 C 
ATOM     10  C   UNL     1     159.643 132.651 138.406  0.00  0.00    +0.000 C 
ATOM     11  C   UNL     1     156.232 131.171 132.970  0.00  0.00    +0.000 C 
ATOM     12  C   UNL     1     160.451 132.930 139.248  0.00  0.00    +0.000 C 
ENDROOT
BRANCH   3  13
ATOM     13  O   UNL     1     155.759 131.906 138.105  0.00  0.00    +0.000 OA
BRANCH  13  14
ATOM     14  C   UNL     1     155.052 132.931 138.943  0.00  0.00    +0.000 C 
ATOM     15  O   UNL     1     155.156 133.904 138.735  0.00  0.00    +0.000 OA
BRANCH  14  16
ATOM     16  C   UNL     1     154.187 132.498 140.091  0.00  0.00    +0.000 C 
ATOM     17  C   UNL     1     153.496 132.152 141.009  0.00  0.00    +0.000 C 
ATOM     18  C   UNL     1     153.889 133.166 140.772  0.00  0.00    +0.000 C 
BRANCH  16  19
ATOM     19  C   UNL     1     153.771 131.061 140.217  0.00  0.00    +0.000 C 
ATOM     20  C   UNL     1     153.302 130.746 141.042  0.00  0.00    +0.000 C 
ENDBRANCH  16  19
ENDBRANCH  14  16
ENDBRANCH  13  14
ENDBRANCH   3  13
BRANCH   6  21
ATOM     21  C   UNL     1     155.183 131.409 135.643  0.00  0.00    +0.000 C 
BRANCH  21  22
ATOM     22  C   UNL     1     154.184 132.507 135.409  0.00  0.00    +0.000 C 
BRANCH  22  26
ATOM     23  C   UNL     1     150.720 130.584 135.207  0.00  0.00    +0.000 C 
ATOM     24  O   UNL     1     152.133 130.924 135.577  0.00  0.00    +0.000 OA
ATOM     25  C   UNL     1     149.945 131.488 134.295  0.00  0.00    +0.000 C 
ATOM     26  C   UNL     1     152.771 132.169 135.036  0.00  0.00    +0.000 C 
ATOM     27  C   UNL     1     150.583 132.733 133.754  0.00  0.00    +0.000 C 
ATOM     28  O   UNL     1     150.209 129.588 135.640  0.00  0.00    +0.000 OA
ATOM     29  C   UNL     1     151.996 133.073 134.125  0.00  0.00    +0.000 C 
ATOM     30  O   UNL     1     149.963 133.457 133.024  0.00  0.00    +0.000 OA
ENDBRANCH  22  26
ENDBRANCH  21  22
ENDBRANCH   6  21
TORSDOF 7
ENDMDL
MODEL 11
REMARK VINA RESULT:      -8.4     35.328     38.337
REMARK  Name = 
REMARK  7 active torsions:
REMARK  status: ('A' for Active; 'I' for Inactive)
REMARK    1  A    between atoms: C_3  and  O_7
REMARK    2  A    between atoms: C_4  and  O_7
REMARK    3  A    between atoms: C_4  and  C_13
REMARK    4  A    between atoms: C_9  and  C_14
REMARK    5  A    between atoms: C_13  and  C_25
REMARK    6  A    between atoms: C_14  and  C_23
REMARK    7  A    between atoms: C_17  and  C_23
REMARK                            x       y       z     vdW  Elec       q    Type
REMARK                         _______ _______ _______ _____ _____    ______ ____
ROOT
ATOM      1  C   UNL     1     121.192 141.311 119.552  0.00  0.00    +0.000 C 
ATOM      2  C   UNL     1     121.591 139.868 119.607  0.00  0.00    +0.000 C 
ATOM      3  C   UNL     1     121.969 139.246 120.915  0.00  0.00    +0.000 C 
ATOM      4  C   UNL     1     120.815 141.933 118.244  0.00  0.00    +0.000 C 
ATOM      5  C   UNL     1     121.171 142.130 120.804  0.00  0.00    +0.000 C 
ATOM      6  C   UNL     1     121.612 139.050 118.355  0.00  0.00    +0.000 C 
ATOM      7  C   UNL     1     120.833 141.113 116.973  0.00  0.00    +0.000 C 
ATOM      8  C   UNL     1     121.948 140.065 122.168  0.00  0.00    +0.000 C 
ATOM      9  C   UNL     1     121.232 139.670 117.029  0.00  0.00    +0.000 C 
ATOM     10  C   UNL     1     121.549 141.508 122.113  0.00  0.00    +0.000 C 
ATOM     11  C   UNL     1     121.250 139.011 116.026  0.00  0.00    +0.000 C 
ATOM     12  C   UNL     1     121.532 142.165 123.117  0.00  0.00    +0.000 C 
ENDROOT
BRANCH   3  13
ATOM     13  O   UNL     1     122.368 137.800 120.967  0.00  0.00    +0.000 OA
BRANCH  13  14
ATOM     14  C   UNL     1     123.797 137.424 121.232  0.00  0.00    +0.000 C 
ATOM     15  O   UNL     1     124.415 138.082 121.662  0.00  0.00    +0.000 OA
BRANCH  14  16
ATOM     16  C   UNL     1     124.299 136.062 120.851  0.00  0.00    +0.000 C 
ATOM     17  C   UNL     1     124.699 134.972 120.547  0.00  0.00    +0.000 C 
ATOM     18  C   UNL     1     124.120 135.279 121.447  0.00  0.00    +0.000 C 
BRANCH  16  19
ATOM     19  C   UNL     1     125.068 135.874 119.576  0.00  0.00    +0.000 C 
ATOM     20  C   UNL     1     125.479 134.987 119.366  0.00  0.00    +0.000 C 
ENDBRANCH  16  19
ENDBRANCH  14  16
ENDBRANCH  13  14
ENDBRANCH   3  13
BRANCH   6  21
ATOM     21  C   UNL     1     122.014 137.605 118.422  0.00  0.00    +0.000 C 
BRANCH  21  22
ATOM     22  C   UNL     1     120.962 136.534 118.464  0.00  0.00    +0.000 C 
BRANCH  22  26
ATOM     23  C   UNL     1     122.678 132.968 118.180  0.00  0.00    +0.000 C 
ATOM     24  O   UNL     1     122.293 134.384 117.872  0.00  0.00    +0.000 OA
ATOM     25  C   UNL     1     122.115 132.283 119.390  0.00  0.00    +0.000 C 
ATOM     26  C   UNL     1     121.345 135.117 118.774  0.00  0.00    +0.000 C 
ATOM     27  C   UNL     1     121.166 133.016 120.293  0.00  0.00    +0.000 C 
ATOM     28  O   UNL     1     123.436 132.381 117.458  0.00  0.00    +0.000 OA
ATOM     29  C   UNL     1     120.782 134.433 119.984  0.00  0.00    +0.000 C 
ATOM     30  O   UNL     1     120.716 132.469 121.260  0.00  0.00    +0.000 OA
ENDBRANCH  22  26
ENDBRANCH  21  22
ENDBRANCH   6  21
TORSDOF 7
ENDMDL
MODEL 12
REMARK VINA RESULT:      -8.3     38.701     40.923
REMARK  Name = 
REMARK  7 active torsions:
REMARK  status: ('A' for Active; 'I' for Inactive)
REMARK    1  A    between atoms: C_3  and  O_7
REMARK    2  A    between atoms: C_4  and  O_7
REMARK    3  A    between atoms: C_4  and  C_13
REMARK    4  A    between atoms: C_9  and  C_14
REMARK    5  A    between atoms: C_13  and  C_25
REMARK    6  A    between atoms: C_14  and  C_23
REMARK    7  A    between atoms: C_17  and  C_23
REMARK                            x       y       z     vdW  Elec       q    Type
REMARK                         _______ _______ _______ _____ _____    ______ ____
ROOT
ATOM      1  C   UNL     1     121.201 136.200 120.958  0.00  0.00    +0.000 C 
ATOM      2  C   UNL     1     121.861 134.913 121.346  0.00  0.00    +0.000 C 
ATOM      3  C   UNL     1     121.389 133.622 120.755  0.00  0.00    +0.000 C 
ATOM      4  C   UNL     1     121.672 137.491 121.550  0.00  0.00    +0.000 C 
ATOM      5  C   UNL     1     120.069 136.195 119.979  0.00  0.00    +0.000 C 
ATOM      6  C   UNL     1     122.992 134.918 122.326  0.00  0.00    +0.000 C 
ATOM      7  C   UNL     1     122.815 137.506 122.541  0.00  0.00    +0.000 C 
ATOM      8  C   UNL     1     120.257 133.616 119.775  0.00  0.00    +0.000 C 
ATOM      9  C   UNL     1     123.476 136.218 122.929  0.00  0.00    +0.000 C 
ATOM     10  C   UNL     1     119.597 134.904 119.386  0.00  0.00    +0.000 C 
ATOM     11  C   UNL     1     124.383 136.219 123.715  0.00  0.00    +0.000 C 
ATOM     12  C   UNL     1     118.690 134.900 118.601  0.00  0.00    +0.000 C 
ENDROOT
BRANCH   3  13
ATOM     13  O   UNL     1     122.052 132.333 121.146  0.00  0.00    +0.000 OA
BRANCH  13  14
ATOM     14  C   UNL     1     122.724 131.488 120.103  0.00  0.00    +0.000 C 
ATOM     15  O   UNL     1     122.826 130.504 120.248  0.00  0.00    +0.000 OA
BRANCH  14  16
ATOM     16  C   UNL     1     123.242 132.118 118.844  0.00  0.00    +0.000 C 
ATOM     17  C   UNL     1     123.656 132.622 117.836  0.00  0.00    +0.000 C 
ATOM     18  C   UNL     1     122.816 131.903 117.965  0.00  0.00    +0.000 C 
BRANCH  16  19
ATOM     19  C   UNL     1     124.400 133.072 118.902  0.00  0.00    +0.000 C 
ATOM     20  C   UNL     1     124.333 133.969 118.466  0.00  0.00    +0.000 C 
ENDBRANCH  16  19
ENDBRANCH  14  16
ENDBRANCH  13  14
ENDBRANCH   3  13
BRANCH   6  21
ATOM     21  C   UNL     1     123.646 133.622 122.708  0.00  0.00    +0.000 C 
BRANCH  21  22
ATOM     22  C   UNL     1     125.071 133.355 122.315  0.00  0.00    +0.000 C 
BRANCH  22  26
ATOM     23  C   UNL     1     126.249 130.079 124.219  0.00  0.00    +0.000 C 
ATOM     24  O   UNL     1     125.639 131.424 123.956  0.00  0.00    +0.000 OA
ATOM     25  C   UNL     1     126.902 129.320 123.103  0.00  0.00    +0.000 C 
ATOM     26  C   UNL     1     125.682 132.010 122.576  0.00  0.00    +0.000 C 
ATOM     27  C   UNL     1     126.945 129.906 121.722  0.00  0.00    +0.000 C 
ATOM     28  O   UNL     1     126.215 129.611 125.323  0.00  0.00    +0.000 OA
ATOM     29  C   UNL     1     126.335 131.251 121.459  0.00  0.00    +0.000 C 
ATOM     30  O   UNL     1     127.467 129.299 120.829  0.00  0.00    +0.000 OA
ENDBRANCH  22  26
ENDBRANCH  21  22
ENDBRANCH   6  21
TORSDOF 7
ENDMDL
MODEL 13
REMARK VINA RESULT:      -8.3     72.364     76.843
REMARK  Name = 
REMARK  7 active torsions:
REMARK  status: ('A' for Active; 'I' for Inactive)
REMARK    1  A    between atoms: C_3  and  O_7
REMARK    2  A    between atoms: C_4  and  O_7
REMARK    3  A    between atoms: C_4  and  C_13
REMARK    4  A    between atoms: C_9  and  C_14
REMARK    5  A    between atoms: C_13  and  C_25
REMARK    6  A    between atoms: C_14  and  C_23
REMARK    7  A    between atoms: C_17  and  C_23
REMARK                            x       y       z     vdW  Elec       q    Type
REMARK                         _______ _______ _______ _____ _____    ______ ____
ROOT
ATOM      1  C   UNL     1     104.271 143.544 159.020  0.00  0.00    +0.000 C 
ATOM      2  C   UNL     1     104.170 144.952 158.520  0.00  0.00    +0.000 C 
ATOM      3  C   UNL     1     104.196 146.094 159.487  0.00  0.00    +0.000 C 
ATOM      4  C   UNL     1     104.245 142.403 158.053  0.00  0.00    +0.000 C 
ATOM      5  C   UNL     1     104.398 143.279 160.488  0.00  0.00    +0.000 C 
ATOM      6  C   UNL     1     104.043 145.217 157.053  0.00  0.00    +0.000 C 
ATOM      7  C   UNL     1     104.117 142.661 156.568  0.00  0.00    +0.000 C 
ATOM      8  C   UNL     1     104.323 145.829 160.955  0.00  0.00    +0.000 C 
ATOM      9  C   UNL     1     104.016 144.070 156.067  0.00  0.00    +0.000 C 
ATOM     10  C   UNL     1     104.424 144.420 161.456  0.00  0.00    +0.000 C 
ATOM     11  C   UNL     1     103.914 144.286 154.891  0.00  0.00    +0.000 C 
ATOM     12  C   UNL     1     104.526 144.208 162.632  0.00  0.00    +0.000 C 
ENDROOT
BRANCH   3  13
ATOM     13  O   UNL     1     104.095 147.504 158.983  0.00  0.00    +0.000 OA
BRANCH  13  14
ATOM     14  C   UNL     1     104.811 148.611 159.700  0.00  0.00    +0.000 C 
ATOM     15  O   UNL     1     104.304 149.223 160.307  0.00  0.00    +0.000 OA
BRANCH  14  16
ATOM     16  C   UNL     1     106.287 148.801 159.506  0.00  0.00    +0.000 C 
ATOM     17  C   UNL     1     107.467 148.953 159.351  0.00  0.00    +0.000 C 
ATOM     18  C   UNL     1     106.934 148.334 160.108  0.00  0.00    +0.000 C 
BRANCH  16  19
ATOM     19  C   UNL     1     106.792 149.692 158.408  0.00  0.00    +0.000 C 
ATOM     20  C   UNL     1     107.774 149.846 158.300  0.00  0.00    +0.000 C 
ENDBRANCH  16  19
ENDBRANCH  14  16
ENDBRANCH  13  14
ENDBRANCH   3  13
BRANCH   6  21
ATOM     21  C   UNL     1     103.943 146.633 156.562  0.00  0.00    +0.000 C 
BRANCH  21  22
ATOM     22  C   UNL     1     102.655 147.135 155.976  0.00  0.00    +0.000 C 
BRANCH  22  26
ATOM     23  C   UNL     1     101.599 149.440 152.924  0.00  0.00    +0.000 C 
ATOM     24  O   UNL     1     101.609 148.801 154.281  0.00  0.00    +0.000 OA
ATOM     25  C   UNL     1     102.625 149.049 151.903  0.00  0.00    +0.000 C 
ATOM     26  C   UNL     1     102.647 147.772 154.618  0.00  0.00    +0.000 C 
ATOM     27  C   UNL     1     103.664 148.019 152.239  0.00  0.00    +0.000 C 
ATOM     28  O   UNL     1     100.769 150.263 152.654  0.00  0.00    +0.000 OA
ATOM     29  C   UNL     1     103.673 147.381 153.597  0.00  0.00    +0.000 C 
ATOM     30  O   UNL     1     104.485 147.706 151.423  0.00  0.00    +0.000 OA
ENDBRANCH  22  26
ENDBRANCH  21  22
ENDBRANCH   6  21
TORSDOF 7
ENDMDL
MODEL 14
REMARK VINA RESULT:      -8.3     50.916     54.846
REMARK  Name = 
REMARK  7 active torsions:
REMARK  status: ('A' for Active; 'I' for Inactive)
REMARK    1  A    between atoms: C_3  and  O_7
REMARK    2  A    between atoms: C_4  and  O_7
REMARK    3  A    between atoms: C_4  and  C_13
REMARK    4  A    between atoms: C_9  and  C_14
REMARK    5  A    between atoms: C_13  and  C_25
REMARK    6  A    between atoms: C_14  and  C_23
REMARK    7  A    between atoms: C_17  and  C_23
REMARK                            x       y       z     vdW  Elec       q    Type
REMARK                         _______ _______ _______ _____ _____    ______ ____
ROOT
ATOM      1  C   UNL     1     156.063 132.605 137.376  0.00  0.00    +0.000 C 
ATOM      2  C   UNL     1     155.066 132.771 136.270  0.00  0.00    +0.000 C 
ATOM      3  C   UNL     1     155.465 132.495 134.855  0.00  0.00    +0.000 C 
ATOM      4  C   UNL     1     155.664 132.882 138.791  0.00  0.00    +0.000 C 
ATOM      5  C   UNL     1     157.458 132.163 137.065  0.00  0.00    +0.000 C 
ATOM      6  C   UNL     1     153.671 133.214 136.582  0.00  0.00    +0.000 C 
ATOM      7  C   UNL     1     154.255 133.329 139.115  0.00  0.00    +0.000 C 
ATOM      8  C   UNL     1     156.861 132.052 134.543  0.00  0.00    +0.000 C 
ATOM      9  C   UNL     1     153.258 133.496 138.010  0.00  0.00    +0.000 C 
ATOM     10  C   UNL     1     157.858 131.886 135.649  0.00  0.00    +0.000 C 
ATOM     11  C   UNL     1     152.138 133.851 138.256  0.00  0.00    +0.000 C 
ATOM     12  C   UNL     1     158.977 131.531 135.399  0.00  0.00    +0.000 C 
ENDROOT
BRANCH   3  13
ATOM     13  O   UNL     1     154.464 132.662 133.749  0.00  0.00    +0.000 OA
BRANCH  13  14
ATOM     14  C   UNL     1     154.924 133.033 132.369  0.00  0.00    +0.000 C 
ATOM     15  O   UNL     1     155.068 132.320 131.682  0.00  0.00    +0.000 OA
BRANCH  14  16
ATOM     16  C   UNL     1     155.168 134.472 132.019  0.00  0.00    +0.000 C 
ATOM     17  C   UNL     1     155.364 135.622 131.740  0.00  0.00    +0.000 C 
ATOM     18  C   UNL     1     156.080 134.770 131.738  0.00  0.00    +0.000 C 
BRANCH  16  19
ATOM     19  C   UNL     1     154.044 135.464 132.091  0.00  0.00    +0.000 C 
ATOM     20  C   UNL     1     154.231 136.441 131.994  0.00  0.00    +0.000 C 
ENDBRANCH  16  19
ENDBRANCH  14  16
ENDBRANCH  13  14
ENDBRANCH   3  13
BRANCH   6  21
ATOM     21  C   UNL     1     152.680 133.377 135.466  0.00  0.00    +0.000 C 
BRANCH  21  22
ATOM     22  C   UNL     1     151.564 132.386 135.301  0.00  0.00    +0.000 C 
BRANCH  22  26
ATOM     23  C   UNL     1     148.354 131.935 133.013  0.00  0.00    +0.000 C 
ATOM     24  O   UNL     1     149.288 131.829 134.182  0.00  0.00    +0.000 OA
ATOM     25  C   UNL     1     148.762 132.706 131.793  0.00  0.00    +0.000 C 
ATOM     26  C   UNL     1     150.631 132.494 134.131  0.00  0.00    +0.000 C 
ATOM     27  C   UNL     1     150.106 133.371 131.742  0.00  0.00    +0.000 C 
ATOM     28  O   UNL     1     147.279 131.403 133.054  0.00  0.00    +0.000 OA
ATOM     29  C   UNL     1     151.040 133.264 132.911  0.00  0.00    +0.000 C 
ATOM     30  O   UNL     1     150.434 133.987 130.766  0.00  0.00    +0.000 OA
ENDBRANCH  22  26
ENDBRANCH  21  22
ENDBRANCH   6  21
TORSDOF 7
ENDMDL
MODEL 15
REMARK VINA RESULT:      -8.2     84.706     87.983
REMARK  Name = 
REMARK  7 active torsions:
REMARK  status: ('A' for Active; 'I' for Inactive)
REMARK    1  A    between atoms: C_3  and  O_7
REMARK    2  A    between atoms: C_4  and  O_7
REMARK    3  A    between atoms: C_4  and  C_13
REMARK    4  A    between atoms: C_9  and  C_14
REMARK    5  A    between atoms: C_13  and  C_25
REMARK    6  A    between atoms: C_14  and  C_23
REMARK    7  A    between atoms: C_17  and  C_23
REMARK                            x       y       z     vdW  Elec       q    Type
REMARK                         _______ _______ _______ _____ _____    ______ ____
ROOT
ATOM      1  C   UNL     1     117.877 159.661 172.998  0.00  0.00    +0.000 C 
ATOM      2  C   UNL     1     116.584 158.966 172.699  0.00  0.00    +0.000 C 
ATOM      3  C   UNL     1     115.750 159.405 171.537  0.00  0.00    +0.000 C 
ATOM      4  C   UNL     1     118.711 159.222 174.160  0.00  0.00    +0.000 C 
ATOM      5  C   UNL     1     118.334 160.795 172.135  0.00  0.00    +0.000 C 
ATOM      6  C   UNL     1     116.127 157.832 173.562  0.00  0.00    +0.000 C 
ATOM      7  C   UNL     1     118.257 158.077 175.038  0.00  0.00    +0.000 C 
ATOM      8  C   UNL     1     116.207 160.539 170.673  0.00  0.00    +0.000 C 
ATOM      9  C   UNL     1     116.964 157.382 174.739  0.00  0.00    +0.000 C 
ATOM     10  C   UNL     1     117.499 161.234 170.972  0.00  0.00    +0.000 C 
ATOM     11  C   UNL     1     116.595 156.472 175.430  0.00  0.00    +0.000 C 
ATOM     12  C   UNL     1     117.866 162.143 170.280  0.00  0.00    +0.000 C 
ENDROOT
BRANCH   3  13
ATOM     13  O   UNL     1     114.455 158.707 171.240  0.00  0.00    +0.000 OA
BRANCH  13  14
ATOM     14  C   UNL     1     113.702 159.023 169.980  0.00  0.00    +0.000 C 
ATOM     15  O   UNL     1     113.745 158.397 169.202  0.00  0.00    +0.000 OA
BRANCH  14  16
ATOM     16  C   UNL     1     112.886 160.280 169.889  0.00  0.00    +0.000 C 
ATOM     17  C   UNL     1     112.233 161.284 169.816  0.00  0.00    +0.000 C 
ATOM     18  C   UNL     1     112.167 160.459 170.560  0.00  0.00    +0.000 C 
BRANCH  16  19
ATOM     19  C   UNL     1     113.148 161.267 168.789  0.00  0.00    +0.000 C 
ATOM     20  C   UNL     1     112.800 162.202 168.862  0.00  0.00    +0.000 C 
ENDBRANCH  16  19
ENDBRANCH  14  16
ENDBRANCH  13  14
ENDBRANCH   3  13
BRANCH   6  21
ATOM     21  C   UNL     1     114.830 157.143 173.254  0.00  0.00    +0.000 C 
BRANCH  21  22
ATOM     22  C   UNL     1     113.590 157.496 174.023  0.00  0.00    +0.000 C 
BRANCH  22  26
ATOM     23  C   UNL     1     114.091 160.737 176.255  0.00  0.00    +0.000 C 
ATOM     24  O   UNL     1     114.266 159.351 175.708  0.00  0.00    +0.000 OA
ATOM     25  C   UNL     1     113.064 161.654 175.661  0.00  0.00    +0.000 C 
ATOM     26  C   UNL     1     113.413 158.883 174.567  0.00  0.00    +0.000 C 
ATOM     27  C   UNL     1     112.211 161.186 174.519  0.00  0.00    +0.000 C 
ATOM     28  O   UNL     1     114.774 161.113 177.168  0.00  0.00    +0.000 OA
ATOM     29  C   UNL     1     112.386 159.800 173.973  0.00  0.00    +0.000 C 
ATOM     30  O   UNL     1     111.389 161.919 174.044  0.00  0.00    +0.000 OA
ENDBRANCH  22  26
ENDBRANCH  21  22
ENDBRANCH   6  21
TORSDOF 7
ENDMDL
MODEL 16
REMARK VINA RESULT:      -8.2     49.443     55.136
REMARK  Name = 
REMARK  7 active torsions:
REMARK  status: ('A' for Active; 'I' for Inactive)
REMARK    1  A    between atoms: C_3  and  O_7
REMARK    2  A    between atoms: C_4  and  O_7
REMARK    3  A    between atoms: C_4  and  C_13
REMARK    4  A    between atoms: C_9  and  C_14
REMARK    5  A    between atoms: C_13  and  C_25
REMARK    6  A    between atoms: C_14  and  C_23
REMARK    7  A    between atoms: C_17  and  C_23
REMARK                            x       y       z     vdW  Elec       q    Type
REMARK                         _______ _______ _______ _____ _____    ______ ____
ROOT
ATOM      1  C   UNL     1     155.679 132.579 137.619  0.00  0.00    +0.000 C 
ATOM      2  C   UNL     1     154.712 132.717 136.482  0.00  0.00    +0.000 C 
ATOM      3  C   UNL     1     153.318 133.196 136.739  0.00  0.00    +0.000 C 
ATOM      4  C   UNL     1     157.073 132.100 137.361  0.00  0.00    +0.000 C 
ATOM      5  C   UNL     1     155.250 132.921 139.011  0.00  0.00    +0.000 C 
ATOM      6  C   UNL     1     155.141 132.375 135.090  0.00  0.00    +0.000 C 
ATOM      7  C   UNL     1     157.515 131.752 135.957  0.00  0.00    +0.000 C 
ATOM      8  C   UNL     1     152.889 133.538 138.132  0.00  0.00    +0.000 C 
ATOM      9  C   UNL     1     156.549 131.890 134.821  0.00  0.00    +0.000 C 
ATOM     10  C   UNL     1     153.855 133.401 139.269  0.00  0.00    +0.000 C 
ATOM     11  C   UNL     1     156.890 131.616 133.702  0.00  0.00    +0.000 C 
ATOM     12  C   UNL     1     153.511 133.675 140.385  0.00  0.00    +0.000 C 
ENDROOT
BRANCH   3  13
ATOM     13  O   UNL     1     152.352 133.333 135.599  0.00  0.00    +0.000 OA
BRANCH  13  14
ATOM     14  C   UNL     1     151.004 132.677 135.673  0.00  0.00    +0.000 C 
ATOM     15  O   UNL     1     150.186 133.232 135.824  0.00  0.00    +0.000 OA
BRANCH  14  16
ATOM     16  C   UNL     1     150.884 131.189 135.520  0.00  0.00    +0.000 C 
ATOM     17  C   UNL     1     150.789 129.999 135.398  0.00  0.00    +0.000 C 
ATOM     18  C   UNL     1     151.693 130.609 135.619  0.00  0.00    +0.000 C 
BRANCH  16  19
ATOM     19  C   UNL     1     149.550 130.570 135.218  0.00  0.00    +0.000 C 
ATOM     20  C   UNL     1     149.361 129.628 135.497  0.00  0.00    +0.000 C 
ENDBRANCH  16  19
ENDBRANCH  14  16
ENDBRANCH  13  14
ENDBRANCH   3  13
BRANCH   6  21
ATOM     21  C   UNL     1     154.165 132.517 133.959  0.00  0.00    +0.000 C 
BRANCH  21  22
ATOM     22  C   UNL     1     154.240 133.707 133.046  0.00  0.00    +0.000 C 
BRANCH  22  26
ATOM     23  C   UNL     1     152.692 134.561 129.494  0.00  0.00    +0.000 C 
ATOM     24  O   UNL     1     153.686 134.402 130.606  0.00  0.00    +0.000 OA
ATOM     25  C   UNL     1     151.257 134.183 129.710  0.00  0.00    +0.000 C 
ATOM     26  C   UNL     1     153.244 133.865 131.935  0.00  0.00    +0.000 C 
ATOM     27  C   UNL     1     150.815 133.645 131.039  0.00  0.00    +0.000 C 
ATOM     28  O   UNL     1     153.045 134.991 128.430  0.00  0.00    +0.000 OA
ATOM     29  C   UNL     1     151.809 133.486 132.151  0.00  0.00    +0.000 C 
ATOM     30  O   UNL     1     149.667 133.342 131.212  0.00  0.00    +0.000 OA
ENDBRANCH  22  26
ENDBRANCH  21  22
ENDBRANCH   6  21
TORSDOF 7
ENDMDL
MODEL 17
REMARK VINA RESULT:      -8.1     47.376     50.925
REMARK  Name = 
REMARK  7 active torsions:
REMARK  status: ('A' for Active; 'I' for Inactive)
REMARK    1  A    between atoms: C_3  and  O_7
REMARK    2  A    between atoms: C_4  and  O_7
REMARK    3  A    between atoms: C_4  and  C_13
REMARK    4  A    between atoms: C_9  and  C_14
REMARK    5  A    between atoms: C_13  and  C_25
REMARK    6  A    between atoms: C_14  and  C_23
REMARK    7  A    between atoms: C_17  and  C_23
REMARK                            x       y       z     vdW  Elec       q    Type
REMARK                         _______ _______ _______ _____ _____    ______ ____
ROOT
ATOM      1  C   UNL     1     127.696 109.432 111.420  0.00  0.00    +0.000 C 
ATOM      2  C   UNL     1     127.445 108.988 110.012  0.00  0.00    +0.000 C 
ATOM      3  C   UNL     1     128.557 108.391 109.206  0.00  0.00    +0.000 C 
ATOM      4  C   UNL     1     126.585 110.029 112.225  0.00  0.00    +0.000 C 
ATOM      5  C   UNL     1     129.058 109.278 112.022  0.00  0.00    +0.000 C 
ATOM      6  C   UNL     1     126.084 109.142 109.410  0.00  0.00    +0.000 C 
ATOM      7  C   UNL     1     125.206 110.188 111.625  0.00  0.00    +0.000 C 
ATOM      8  C   UNL     1     129.919 108.237 109.808  0.00  0.00    +0.000 C 
ATOM      9  C   UNL     1     124.955 109.744 110.217  0.00  0.00    +0.000 C 
ATOM     10  C   UNL     1     130.170 108.681 111.216  0.00  0.00    +0.000 C 
ATOM     11  C   UNL     1     123.864 109.866 109.731  0.00  0.00    +0.000 C 
ATOM     12  C   UNL     1     131.261 108.558 111.699  0.00  0.00    +0.000 C 
ENDROOT
BRANCH   3  13
ATOM     13  O   UNL     1     128.302 107.947 107.795  0.00  0.00    +0.000 OA
BRANCH  13  14
ATOM     14  C   UNL     1     129.454 107.600 106.898  0.00  0.00    +0.000 C 
ATOM     15  O   UNL     1     129.796 106.661 106.864  0.00  0.00    +0.000 OA
BRANCH  14  16
ATOM     16  C   UNL     1     130.094 108.662 106.051  0.00  0.00    +0.000 C 
ATOM     17  C   UNL     1     130.605 109.511 105.374  0.00  0.00    +0.000 C 
ATOM     18  C   UNL     1     129.921 108.688 105.067  0.00  0.00    +0.000 C 
BRANCH  16  19
ATOM     19  C   UNL     1     130.993 109.686 106.681  0.00  0.00    +0.000 C 
ATOM     20  C   UNL     1     131.385 110.418 106.125  0.00  0.00    +0.000 C 
ENDBRANCH  16  19
ENDBRANCH  14  16
ENDBRANCH  13  14
ENDBRANCH   3  13
BRANCH   6  21
ATOM     21  C   UNL     1     125.844 108.694 107.998  0.00  0.00    +0.000 C 
BRANCH  21  22
ATOM     22  C   UNL     1     125.011 107.474 107.728  0.00  0.00    +0.000 C 
BRANCH  22  26
ATOM     23  C   UNL     1     126.653 103.966 108.590  0.00  0.00    +0.000 C 
ATOM     24  O   UNL     1     126.349 105.254 107.884  0.00  0.00    +0.000 OA
ATOM     25  C   UNL     1     125.921 103.611 109.850  0.00  0.00    +0.000 C 
ATOM     26  C   UNL     1     125.313 106.186 108.436  0.00  0.00    +0.000 C 
ATOM     27  C   UNL     1     124.884 104.543 110.403  0.00  0.00    +0.000 C 
ATOM     28  O   UNL     1     127.482 103.220 108.148  0.00  0.00    +0.000 OA
ATOM     29  C   UNL     1     124.581 105.831 109.696  0.00  0.00    +0.000 C 
ATOM     30  O   UNL     1     124.298 104.260 111.411  0.00  0.00    +0.000 OA
ENDBRANCH  22  26
ENDBRANCH  21  22
ENDBRANCH   6  21
TORSDOF 7
ENDMDL
MODEL 18
REMARK VINA RESULT:      -8.0     68.642     73.326
REMARK  Name = 
REMARK  7 active torsions:
REMARK  status: ('A' for Active; 'I' for Inactive)
REMARK    1  A    between atoms: C_3  and  O_7
REMARK    2  A    between atoms: C_4  and  O_7
REMARK    3  A    between atoms: C_4  and  C_13
REMARK    4  A    between atoms: C_9  and  C_14
REMARK    5  A    between atoms: C_13  and  C_25
REMARK    6  A    between atoms: C_14  and  C_23
REMARK    7  A    between atoms: C_17  and  C_23
REMARK                            x       y       z     vdW  Elec       q    Type
REMARK                         _______ _______ _______ _____ _____    ______ ____
ROOT
ATOM      1  C   UNL     1     147.662 131.917 155.717  0.00  0.00    +0.000 C 
ATOM      2  C   UNL     1     147.661 133.150 156.568  0.00  0.00    +0.000 C 
ATOM      3  C   UNL     1     146.413 133.565 157.282  0.00  0.00    +0.000 C 
ATOM      4  C   UNL     1     148.909 131.503 155.002  0.00  0.00    +0.000 C 
ATOM      5  C   UNL     1     146.415 131.101 155.582  0.00  0.00    +0.000 C 
ATOM      6  C   UNL     1     148.907 133.967 156.703  0.00  0.00    +0.000 C 
ATOM      7  C   UNL     1     150.174 132.322 155.133  0.00  0.00    +0.000 C 
ATOM      8  C   UNL     1     145.166 132.748 157.147  0.00  0.00    +0.000 C 
ATOM      9  C   UNL     1     150.173 133.555 155.984  0.00  0.00    +0.000 C 
ATOM     10  C   UNL     1     145.167 131.515 156.296  0.00  0.00    +0.000 C 
ATOM     11  C   UNL     1     151.172 134.212 156.094  0.00  0.00    +0.000 C 
ATOM     12  C   UNL     1     144.167 130.860 156.188  0.00  0.00    +0.000 C 
ENDROOT
BRANCH   3  13
ATOM     13  O   UNL     1     146.415 134.801 158.134  0.00  0.00    +0.000 OA
BRANCH  13  14
ATOM     14  C   UNL     1     145.956 134.730 159.561  0.00  0.00    +0.000 C 
ATOM     15  O   UNL     1     145.198 135.304 159.871  0.00  0.00    +0.000 OA
BRANCH  14  16
ATOM     16  C   UNL     1     146.633 133.798 160.524  0.00  0.00    +0.000 C 
ATOM     17  C   UNL     1     147.174 133.053 161.293  0.00  0.00    +0.000 C 
ATOM     18  C   UNL     1     146.122 133.041 160.930  0.00  0.00    +0.000 C 
BRANCH  16  19
ATOM     19  C   UNL     1     148.078 134.003 160.877  0.00  0.00    +0.000 C 
ATOM     20  C   UNL     1     148.515 133.414 161.557  0.00  0.00    +0.000 C 
ENDBRANCH  16  19
ENDBRANCH  14  16
ENDBRANCH  13  14
ENDBRANCH   3  13
BRANCH   6  21
ATOM     21  C   UNL     1     148.895 135.200 157.558  0.00  0.00    +0.000 C 
BRANCH  21  22
ATOM     22  C   UNL     1     148.783 136.556 156.921  0.00  0.00    +0.000 C 
BRANCH  22  26
ATOM     23  C   UNL     1     145.971 136.980 154.155  0.00  0.00    +0.000 C 
ATOM     24  O   UNL     1     146.632 136.832 155.493  0.00  0.00    +0.000 OA
ATOM     25  C   UNL     1     146.800 137.000 152.906  0.00  0.00    +0.000 C 
ATOM     26  C   UNL     1     148.124 136.704 155.582  0.00  0.00    +0.000 C 
ATOM     27  C   UNL     1     148.292 136.871 152.994  0.00  0.00    +0.000 C 
ATOM     28  O   UNL     1     144.777 137.083 154.083  0.00  0.00    +0.000 OA
ATOM     29  C   UNL     1     148.953 136.723 154.333  0.00  0.00    +0.000 C 
ATOM     30  O   UNL     1     148.957 136.887 151.995  0.00  0.00    +0.000 OA
ENDBRANCH  22  26
ENDBRANCH  21  22
ENDBRANCH   6  21
TORSDOF 7
ENDMDL
MODEL 19
REMARK VINA RESULT:      -8.0     32.433     35.381
REMARK  Name = 
REMARK  7 active torsions:
REMARK  status: ('A' for Active; 'I' for Inactive)
REMARK    1  A    between atoms: C_3  and  O_7
REMARK    2  A    between atoms: C_4  and  O_7
REMARK    3  A    between atoms: C_4  and  C_13
REMARK    4  A    between atoms: C_9  and  C_14
REMARK    5  A    between atoms: C_13  and  C_25
REMARK    6  A    between atoms: C_14  and  C_23
REMARK    7  A    between atoms: C_17  and  C_23
REMARK                            x       y       z     vdW  Elec       q    Type
REMARK                         _______ _______ _______ _____ _____    ______ ____
ROOT
ATOM      1  C   UNL     1     106.043 143.839  99.740  0.00  0.00    +0.000 C 
ATOM      2  C   UNL     1     105.201 143.883 100.978  0.00  0.00    +0.000 C 
ATOM      3  C   UNL     1     105.158 145.127 101.809  0.00  0.00    +0.000 C 
ATOM      4  C   UNL     1     106.086 142.595  98.909  0.00  0.00    +0.000 C 
ATOM      5  C   UNL     1     106.840 145.039  99.334  0.00  0.00    +0.000 C 
ATOM      6  C   UNL     1     104.404 142.684 101.384  0.00  0.00    +0.000 C 
ATOM      7  C   UNL     1     105.283 141.378  99.312  0.00  0.00    +0.000 C 
ATOM      8  C   UNL     1     105.955 146.328 101.404  0.00  0.00    +0.000 C 
ATOM      9  C   UNL     1     104.442 141.422 100.550  0.00  0.00    +0.000 C 
ATOM     10  C   UNL     1     106.797 146.283 100.165  0.00  0.00    +0.000 C 
ATOM     11  C   UNL     1     103.801 140.462 100.879  0.00  0.00    +0.000 C 
ATOM     12  C   UNL     1     107.436 147.245  99.839  0.00  0.00    +0.000 C 
ENDROOT
BRANCH   3  13
ATOM     13  O   UNL     1     104.314 145.169 103.050  0.00  0.00    +0.000 OA
BRANCH  13  14
ATOM     14  C   UNL     1     104.268 146.414 103.886  0.00  0.00    +0.000 C 
ATOM     15  O   UNL     1     103.548 147.091 103.735  0.00  0.00    +0.000 OA
BRANCH  14  16
ATOM     16  C   UNL     1     105.303 146.644 104.949  0.00  0.00    +0.000 C 
ATOM     17  C   UNL     1     106.130 146.829 105.799  0.00  0.00    +0.000 C 
ATOM     18  C   UNL     1     105.798 147.512 104.985  0.00  0.00    +0.000 C 
BRANCH  16  19
ATOM     19  C   UNL     1     105.594 145.572 105.958  0.00  0.00    +0.000 C 
ATOM     20  C   UNL     1     106.333 145.696 106.621  0.00  0.00    +0.000 C 
ENDBRANCH  16  19
ENDBRANCH  14  16
ENDBRANCH  13  14
ENDBRANCH   3  13
BRANCH   6  21
ATOM     21  C   UNL     1     103.564 142.740 102.627  0.00  0.00    +0.000 C 
BRANCH  21  22
ATOM     22  C   UNL     1     104.008 142.017 103.867  0.00  0.00    +0.000 C 
BRANCH  22  26
ATOM     23  C   UNL     1     102.232 144.133 106.715  0.00  0.00    +0.000 C 
ATOM     24  O   UNL     1     102.569 143.576 105.364  0.00  0.00    +0.000 OA
ATOM     25  C   UNL     1     103.001 143.686 107.923  0.00  0.00    +0.000 C 
ATOM     26  C   UNL     1     103.673 142.572 105.220  0.00  0.00    +0.000 C 
ATOM     27  C   UNL     1     104.106 142.681 107.780  0.00  0.00    +0.000 C 
ATOM     28  O   UNL     1     101.348 144.936 106.831  0.00  0.00    +0.000 OA
ATOM     29  C   UNL     1     104.442 142.125 106.428  0.00  0.00    +0.000 C 
ATOM     30  O   UNL     1     104.721 142.324 108.746  0.00  0.00    +0.000 OA
ENDBRANCH  22  26
ENDBRANCH  21  22
ENDBRANCH   6  21
TORSDOF 7
ENDMDL
MODEL 20
REMARK VINA RESULT:      -8.0     73.052     76.671
REMARK  Name = 
REMARK  7 active torsions:
REMARK  status: ('A' for Active; 'I' for Inactive)
REMARK    1  A    between atoms: C_3  and  O_7
REMARK    2  A    between atoms: C_4  and  O_7
REMARK    3  A    between atoms: C_4  and  C_13
REMARK    4  A    between atoms: C_9  and  C_14
REMARK    5  A    between atoms: C_13  and  C_25
REMARK    6  A    between atoms: C_14  and  C_23
REMARK    7  A    between atoms: C_17  and  C_23
REMARK                            x       y       z     vdW  Elec       q    Type
REMARK                         _______ _______ _______ _____ _____    ______ ____
ROOT
ATOM      1  C   UNL     1     103.353 144.702 157.281  0.00  0.00    +0.000 C 
ATOM      2  C   UNL     1     104.361 145.747 157.650  0.00  0.00    +0.000 C 
ATOM      3  C   UNL     1     105.007 146.573 156.583  0.00  0.00    +0.000 C 
ATOM      4  C   UNL     1     102.706 143.876 158.348  0.00  0.00    +0.000 C 
ATOM      5  C   UNL     1     102.994 144.484 155.845  0.00  0.00    +0.000 C 
ATOM      6  C   UNL     1     104.720 145.965 159.086  0.00  0.00    +0.000 C 
ATOM      7  C   UNL     1     103.064 144.090 159.803  0.00  0.00    +0.000 C 
ATOM      8  C   UNL     1     104.648 146.355 155.146  0.00  0.00    +0.000 C 
ATOM      9  C   UNL     1     104.071 145.135 160.172  0.00  0.00    +0.000 C 
ATOM     10  C   UNL     1     103.640 145.310 154.777  0.00  0.00    +0.000 C 
ATOM     11  C   UNL     1     104.362 145.313 161.323  0.00  0.00    +0.000 C 
ATOM     12  C   UNL     1     103.352 145.134 153.625  0.00  0.00    +0.000 C 
ENDROOT
BRANCH   3  13
ATOM     13  O   UNL     1     106.016 147.620 156.956  0.00  0.00    +0.000 OA
BRANCH  13  14
ATOM     14  C   UNL     1     106.045 148.930 156.224  0.00  0.00    +0.000 C 
ATOM     15  O   UNL     1     105.246 149.531 156.245  0.00  0.00    +0.000 OA
BRANCH  14  16
ATOM     16  C   UNL     1     107.272 149.339 155.462  0.00  0.00    +0.000 C 
ATOM     17  C   UNL     1     108.253 149.665 154.853  0.00  0.00    +0.000 C 
ATOM     18  C   UNL     1     107.509 148.873 154.610  0.00  0.00    +0.000 C 
BRANCH  16  19
ATOM     19  C   UNL     1     108.143 150.446 155.979  0.00  0.00    +0.000 C 
ATOM     20  C   UNL     1     108.986 150.687 155.497  0.00  0.00    +0.000 C 
ENDBRANCH  16  19
ENDBRANCH  14  16
ENDBRANCH  13  14
ENDBRANCH   3  13
BRANCH   6  21
ATOM     21  C   UNL     1     105.731 147.016 159.445  0.00  0.00    +0.000 C 
BRANCH  21  22
ATOM     22  C   UNL     1     105.276 148.364 159.926  0.00  0.00    +0.000 C 
BRANCH  22  26
ATOM     23  C   UNL     1     106.932 151.608 161.499  0.00  0.00    +0.000 C 
ATOM     24  O   UNL     1     105.924 150.543 161.178  0.00  0.00    +0.000 OA
ATOM     25  C   UNL     1     108.299 151.555 160.887  0.00  0.00    +0.000 C 
ATOM     26  C   UNL     1     106.285 149.427 160.245  0.00  0.00    +0.000 C 
ATOM     27  C   UNL     1     108.661 150.438 159.952  0.00  0.00    +0.000 C 
ATOM     28  O   UNL     1     106.643 152.502 162.246  0.00  0.00    +0.000 OA
ATOM     29  C   UNL     1     107.653 149.374 159.632  0.00  0.00    +0.000 C 
ATOM     30  O   UNL     1     109.755 150.396 159.462  0.00  0.00    +0.000 OA
ENDBRANCH  22  26
ENDBRANCH  21  22
ENDBRANCH   6  21
TORSDOF 7
ENDMDL
