MODEL 1
REMARK VINA RESULT:      -8.0      0.000      0.000
REMARK  Name = 
REMARK  6 active torsions:
REMARK  status: ('A' for Active; 'I' for Inactive)
REMARK    1  A    between atoms: N_5  and  C_15
REMARK    2  A    between atoms: N_9  and  C_19
REMARK    3  A    between atoms: N_9  and  C_20
REMARK    4  A    between atoms: C_15  and  C_18
REMARK    5  A    between atoms: C_18  and  C_19
REMARK    6  A    between atoms: C_20  and  C_22
REMARK                            x       y       z     vdW  Elec       q    Type
REMARK                         _______ _______ _______ _____ _____    ______ ____
ROOT
ATOM      1  O   UNL     1     105.573 138.905 161.679  0.00  0.00    +0.000 OA
ATOM      2  O   UNL     1     103.824 136.887 162.696  0.00  0.00    +0.000 OA
ATOM      3  N   UNL     1     105.902 139.337 163.386  0.00  0.00    +0.000 N 
ATOM      4  N   UNL     1     104.531 137.739 163.597  0.00  0.00    +0.000 N 
ATOM      5  N   UNL     1     104.699 137.896 162.187  0.00  0.00    +0.000 N 
ATOM      6  N   UNL     1     105.340 138.709 164.422  0.00  0.00    +0.000 NA
ATOM      7  C   UNL     1     105.406 138.749 163.089  0.00  0.00    +0.000 A 
ATOM      8  C   UNL     1     105.059 138.360 163.729  0.00  0.00    +0.000 A 
ATOM      9  C   UNL     1     105.226 138.516 162.318  0.00  0.00    +0.000 A 
ATOM     10  C   UNL     1     104.351 137.507 162.826  0.00  0.00    +0.000 A 
ATOM     11  C   UNL     1     105.861 139.313 164.210  0.00  0.00    +0.000 A 
ATOM     12  C   UNL     1     104.184 137.351 164.237  0.00  0.00    +0.000 C 
ATOM     13  C   UNL     1     104.519 137.664 161.416  0.00  0.00    +0.000 C 
ENDROOT
BRANCH   3  14
ATOM     14  C   UNL     1     106.358 139.858 162.939  0.00  0.00    +0.000 C 
BRANCH  14  16
ATOM     15  O   UNL     1     107.331 140.360 163.857  0.00  0.00    +0.000 OA
ATOM     16  C   UNL     1     106.733 140.495 163.304  0.00  0.00    +0.000 C 
BRANCH  16  17
ATOM     17  C   UNL     1     106.512 141.268 163.116  0.00  0.00    +0.000 C 
BRANCH  17  18
ATOM     18  N   UNL     1     107.086 141.824 162.913  0.00  0.00    +0.000 NA
ATOM     19  C   UNL     1     107.582 141.687 162.267  0.00  0.00    +0.000 C 
BRANCH  18  20
ATOM     20  C   UNL     1     107.165 142.517 163.354  0.00  0.00    +0.000 C 
BRANCH  20  22
ATOM     21  O   UNL     1     107.208 143.944 163.420  0.00  0.00    +0.000 OA
ATOM     22  C   UNL     1     107.151 143.250 162.977  0.00  0.00    +0.000 C 
ENDBRANCH  20  22
ENDBRANCH  18  20
ENDBRANCH  17  18
ENDBRANCH  16  17
ENDBRANCH  14  16
ENDBRANCH   3  14
TORSDOF 6
ENDMDL
MODEL 2
REMARK VINA RESULT:      -7.9      1.363      4.694
REMARK  Name = 
REMARK  6 active torsions:
REMARK  status: ('A' for Active; 'I' for Inactive)
REMARK    1  A    between atoms: N_5  and  C_15
REMARK    2  A    between atoms: N_9  and  C_19
REMARK    3  A    between atoms: N_9  and  C_20
REMARK    4  A    between atoms: C_15  and  C_18
REMARK    5  A    between atoms: C_18  and  C_19
REMARK    6  A    between atoms: C_20  and  C_22
REMARK                            x       y       z     vdW  Elec       q    Type
REMARK                         _______ _______ _______ _____ _____    ______ ____
ROOT
ATOM      1  O   UNL     1     106.285 139.614 163.609  0.00  0.00    +0.000 OA
ATOM      2  O   UNL     1     107.373 141.955 162.382  0.00  0.00    +0.000 OA
ATOM      3  N   UNL     1     105.568 139.234 162.012  0.00  0.00    +0.000 N 
ATOM      4  N   UNL     1     106.579 141.050 161.615  0.00  0.00    +0.000 N 
ATOM      5  N   UNL     1     106.829 140.785 162.996  0.00  0.00    +0.000 N 
ATOM      6  N   UNL     1     105.726 140.008 160.936  0.00  0.00    +0.000 NA
ATOM      7  C   UNL     1     106.034 139.879 162.228  0.00  0.00    +0.000 A 
ATOM      8  C   UNL     1     106.132 140.358 161.563  0.00  0.00    +0.000 A 
ATOM      9  C   UNL     1     106.383 140.093 162.945  0.00  0.00    +0.000 A 
ATOM     10  C   UNL     1     106.927 141.263 162.331  0.00  0.00    +0.000 A 
ATOM     11  C   UNL     1     105.377 139.313 161.213  0.00  0.00    +0.000 A 
ATOM     12  C   UNL     1     106.676 141.528 160.949  0.00  0.00    +0.000 C 
ATOM     13  C   UNL     1     107.178 140.998 163.713  0.00  0.00    +0.000 C 
ENDROOT
BRANCH   3  14
ATOM     14  C   UNL     1     105.333 138.618 162.507  0.00  0.00    +0.000 C 
BRANCH  14  16
ATOM     15  O   UNL     1     105.047 137.511 161.652  0.00  0.00    +0.000 OA
ATOM     16  C   UNL     1     104.808 138.045 162.233  0.00  0.00    +0.000 C 
BRANCH  16  17
ATOM     17  C   UNL     1     104.042 138.006 162.539  0.00  0.00    +0.000 C 
BRANCH  17  18
ATOM     18  N   UNL     1     103.790 137.328 162.934  0.00  0.00    +0.000 NA
ATOM     19  C   UNL     1     103.750 136.608 162.534  0.00  0.00    +0.000 C 
BRANCH  18  20
ATOM     20  C   UNL     1     103.577 137.369 163.731  0.00  0.00    +0.000 C 
BRANCH  20  22
ATOM     21  O   UNL     1     102.653 137.070 164.778  0.00  0.00    +0.000 OA
ATOM     22  C   UNL     1     102.914 136.963 164.003  0.00  0.00    +0.000 C 
ENDBRANCH  20  22
ENDBRANCH  18  20
ENDBRANCH  17  18
ENDBRANCH  16  17
ENDBRANCH  14  16
ENDBRANCH   3  14
TORSDOF 6
ENDMDL
MODEL 3
REMARK VINA RESULT:      -7.6      2.317      3.738
REMARK  Name = 
REMARK  6 active torsions:
REMARK  status: ('A' for Active; 'I' for Inactive)
REMARK    1  A    between atoms: N_5  and  C_15
REMARK    2  A    between atoms: N_9  and  C_19
REMARK    3  A    between atoms: N_9  and  C_20
REMARK    4  A    between atoms: C_15  and  C_18
REMARK    5  A    between atoms: C_18  and  C_19
REMARK    6  A    between atoms: C_20  and  C_22
REMARK                            x       y       z     vdW  Elec       q    Type
REMARK                         _______ _______ _______ _____ _____    ______ ____
ROOT
ATOM      1  O   UNL     1     106.013 139.847 162.558  0.00  0.00    +0.000 OA
ATOM      2  O   UNL     1     106.176 140.681 159.829  0.00  0.00    +0.000 OA
ATOM      3  N   UNL     1     106.771 141.416 162.976  0.00  0.00    +0.000 N 
ATOM      4  N   UNL     1     106.656 141.537 160.867  0.00  0.00    +0.000 N 
ATOM      5  N   UNL     1     106.095 140.264 161.193  0.00  0.00    +0.000 N 
ATOM      6  N   UNL     1     107.118 142.328 162.065  0.00  0.00    +0.000 NA
ATOM      7  C   UNL     1     106.574 141.120 162.232  0.00  0.00    +0.000 A 
ATOM      8  C   UNL     1     106.788 141.683 161.668  0.00  0.00    +0.000 A 
ATOM      9  C   UNL     1     106.227 140.410 161.994  0.00  0.00    +0.000 A 
ATOM     10  C   UNL     1     106.309 140.827 160.629  0.00  0.00    +0.000 A 
ATOM     11  C   UNL     1     107.107 142.163 162.873  0.00  0.00    +0.000 A 
ATOM     12  C   UNL     1     106.870 142.100 160.304  0.00  0.00    +0.000 C 
ATOM     13  C   UNL     1     105.748 139.554 160.956  0.00  0.00    +0.000 C 
ENDROOT
BRANCH   3  14
ATOM     14  C   UNL     1     106.652 141.033 163.697  0.00  0.00    +0.000 C 
BRANCH  14  16
ATOM     15  O   UNL     1     107.512 141.703 164.620  0.00  0.00    +0.000 OA
ATOM     16  C   UNL     1     106.760 141.443 164.404  0.00  0.00    +0.000 C 
BRANCH  16  17
ATOM     17  C   UNL     1     106.115 141.593 164.897  0.00  0.00    +0.000 C 
BRANCH  17  18
ATOM     18  N   UNL     1     106.128 141.340 165.682  0.00  0.00    +0.000 NA
ATOM     19  C   UNL     1     106.611 141.721 166.230  0.00  0.00    +0.000 C 
BRANCH  18  20
ATOM     20  C   UNL     1     105.657 140.705 165.919  0.00  0.00    +0.000 C 
BRANCH  20  22
ATOM     21  O   UNL     1     104.698 140.148 166.820  0.00  0.00    +0.000 OA
ATOM     22  C   UNL     1     105.223 140.751 166.618  0.00  0.00    +0.000 C 
ENDBRANCH  20  22
ENDBRANCH  18  20
ENDBRANCH  17  18
ENDBRANCH  16  17
ENDBRANCH  14  16
ENDBRANCH   3  14
TORSDOF 6
ENDMDL
MODEL 4
REMARK VINA RESULT:      -7.6      1.568      1.855
REMARK  Name = 
REMARK  6 active torsions:
REMARK  status: ('A' for Active; 'I' for Inactive)
REMARK    1  A    between atoms: N_5  and  C_15
REMARK    2  A    between atoms: N_9  and  C_19
REMARK    3  A    between atoms: N_9  and  C_20
REMARK    4  A    between atoms: C_15  and  C_18
REMARK    5  A    between atoms: C_18  and  C_19
REMARK    6  A    between atoms: C_20  and  C_22
REMARK                            x       y       z     vdW  Elec       q    Type
REMARK                         _______ _______ _______ _____ _____    ______ ____
ROOT
ATOM      1  O   UNL     1     105.392 139.380 160.941  0.00  0.00    +0.000 OA
ATOM      2  O   UNL     1     104.785 137.562 163.061  0.00  0.00    +0.000 OA
ATOM      3  N   UNL     1     106.263 140.357 162.165  0.00  0.00    +0.000 N 
ATOM      4  N   UNL     1     105.554 138.736 163.326  0.00  0.00    +0.000 N 
ATOM      5  N   UNL     1     105.088 138.471 162.001  0.00  0.00    +0.000 N 
ATOM      6  N   UNL     1     106.351 140.011 163.451  0.00  0.00    +0.000 NA
ATOM      7  C   UNL     1     105.858 139.646 162.266  0.00  0.00    +0.000 A 
ATOM      8  C   UNL     1     105.911 139.431 163.061  0.00  0.00    +0.000 A 
ATOM      9  C   UNL     1     105.445 139.165 161.736  0.00  0.00    +0.000 A 
ATOM     10  C   UNL     1     105.142 138.256 162.796  0.00  0.00    +0.000 A 
ATOM     11  C   UNL     1     106.568 140.583 162.898  0.00  0.00    +0.000 A 
ATOM     12  C   UNL     1     105.608 138.522 164.121  0.00  0.00    +0.000 C 
ATOM     13  C   UNL     1     104.677 137.991 161.472  0.00  0.00    +0.000 C 
ENDROOT
BRANCH   3  14
ATOM     14  C   UNL     1     106.348 140.770 161.456  0.00  0.00    +0.000 C 
BRANCH  14  16
ATOM     15  O   UNL     1     107.544 141.552 161.477  0.00  0.00    +0.000 OA
ATOM     16  C   UNL     1     106.720 141.506 161.450  0.00  0.00    +0.000 C 
BRANCH  16  17
ATOM     17  C   UNL     1     106.270 142.197 161.418  0.00  0.00    +0.000 C 
BRANCH  17  18
ATOM     18  N   UNL     1     106.457 142.786 160.873  0.00  0.00    +0.000 NA
ATOM     19  C   UNL     1     106.536 142.599 160.073  0.00  0.00    +0.000 C 
BRANCH  18  20
ATOM     20  C   UNL     1     106.566 143.564 161.127  0.00  0.00    +0.000 C 
BRANCH  20  22
ATOM     21  O   UNL     1     106.167 144.936 161.115  0.00  0.00    +0.000 OA
ATOM     22  C   UNL     1     106.095 144.168 160.822  0.00  0.00    +0.000 C 
ENDBRANCH  20  22
ENDBRANCH  18  20
ENDBRANCH  17  18
ENDBRANCH  16  17
ENDBRANCH  14  16
ENDBRANCH   3  14
TORSDOF 6
ENDMDL
MODEL 5
REMARK VINA RESULT:      -7.6      2.166      3.409
REMARK  Name = 
REMARK  6 active torsions:
REMARK  status: ('A' for Active; 'I' for Inactive)
REMARK    1  A    between atoms: N_5  and  C_15
REMARK    2  A    between atoms: N_9  and  C_19
REMARK    3  A    between atoms: N_9  and  C_20
REMARK    4  A    between atoms: C_15  and  C_18
REMARK    5  A    between atoms: C_18  and  C_19
REMARK    6  A    between atoms: C_20  and  C_22
REMARK                            x       y       z     vdW  Elec       q    Type
REMARK                         _______ _______ _______ _____ _____    ______ ____
ROOT
ATOM      1  O   UNL     1     106.159 139.773 163.369  0.00  0.00    +0.000 OA
ATOM      2  O   UNL     1     105.887 140.203 166.182  0.00  0.00    +0.000 OA
ATOM      3  N   UNL     1     106.773 141.454 163.275  0.00  0.00    +0.000 N 
ATOM      4  N   UNL     1     106.386 141.247 165.345  0.00  0.00    +0.000 N 
ATOM      5  N   UNL     1     106.023 139.988 164.776  0.00  0.00    +0.000 N 
ATOM      6  N   UNL     1     106.896 142.250 164.340  0.00  0.00    +0.000 NA
ATOM      7  C   UNL     1     106.523 141.033 163.938  0.00  0.00    +0.000 A 
ATOM      8  C   UNL     1     106.598 141.524 164.597  0.00  0.00    +0.000 A 
ATOM      9  C   UNL     1     106.235 140.264 164.028  0.00  0.00    +0.000 A 
ATOM     10  C   UNL     1     106.099 140.479 165.434  0.00  0.00    +0.000 A 
ATOM     11  C   UNL     1     107.004 142.207 163.524  0.00  0.00    +0.000 A 
ATOM     12  C   UNL     1     106.462 141.739 166.003  0.00  0.00    +0.000 C 
ATOM     13  C   UNL     1     105.736 139.220 164.865  0.00  0.00    +0.000 C 
ENDROOT
BRANCH   3  14
ATOM     14  C   UNL     1     106.790 141.173 162.500  0.00  0.00    +0.000 C 
BRANCH  14  16
ATOM     15  O   UNL     1     107.827 141.842 161.781  0.00  0.00    +0.000 OA
ATOM     16  C   UNL     1     107.027 141.670 161.887  0.00  0.00    +0.000 C 
BRANCH  16  17
ATOM     17  C   UNL     1     106.465 141.996 161.378  0.00  0.00    +0.000 C 
BRANCH  17  18
ATOM     18  N   UNL     1     106.577 141.960 160.562  0.00  0.00    +0.000 NA
ATOM     19  C   UNL     1     106.717 141.234 160.196  0.00  0.00    +0.000 C 
BRANCH  18  20
ATOM     20  C   UNL     1     106.549 142.650 160.110  0.00  0.00    +0.000 C 
BRANCH  20  22
ATOM     21  O   UNL     1     106.019 143.387 159.006  0.00  0.00    +0.000 OA
ATOM     22  C   UNL     1     106.054 142.694 159.452  0.00  0.00    +0.000 C 
ENDBRANCH  20  22
ENDBRANCH  18  20
ENDBRANCH  17  18
ENDBRANCH  16  17
ENDBRANCH  14  16
ENDBRANCH   3  14
TORSDOF 6
ENDMDL
MODEL 6
REMARK VINA RESULT:      -7.5      1.213      4.607
REMARK  Name = 
REMARK  6 active torsions:
REMARK  status: ('A' for Active; 'I' for Inactive)
REMARK    1  A    between atoms: N_5  and  C_15
REMARK    2  A    between atoms: N_9  and  C_19
REMARK    3  A    between atoms: N_9  and  C_20
REMARK    4  A    between atoms: C_15  and  C_18
REMARK    5  A    between atoms: C_18  and  C_19
REMARK    6  A    between atoms: C_20  and  C_22
REMARK                            x       y       z     vdW  Elec       q    Type
REMARK                         _______ _______ _______ _____ _____    ______ ____
ROOT
ATOM      1  O   UNL     1     106.060 140.399 160.774  0.00  0.00    +0.000 OA
ATOM      2  O   UNL     1     107.364 142.818 161.561  0.00  0.00    +0.000 OA
ATOM      3  N   UNL     1     106.059 139.955 162.510  0.00  0.00    +0.000 N 
ATOM      4  N   UNL     1     107.005 141.847 162.545  0.00  0.00    +0.000 N 
ATOM      5  N   UNL     1     106.712 141.609 161.167  0.00  0.00    +0.000 N 
ATOM      6  N   UNL     1     106.569 140.735 163.466  0.00  0.00    +0.000 NA
ATOM      7  C   UNL     1     106.353 140.637 162.152  0.00  0.00    +0.000 A 
ATOM      8  C   UNL     1     106.668 141.120 162.742  0.00  0.00    +0.000 A 
ATOM      9  C   UNL     1     106.375 140.882 161.364  0.00  0.00    +0.000 A 
ATOM     10  C   UNL     1     107.027 142.092 161.757  0.00  0.00    +0.000 A 
ATOM     11  C   UNL     1     106.192 140.016 163.322  0.00  0.00    +0.000 A 
ATOM     12  C   UNL     1     107.320 142.329 163.136  0.00  0.00    +0.000 C 
ATOM     13  C   UNL     1     106.734 141.853 160.380  0.00  0.00    +0.000 C 
ENDROOT
BRANCH   3  14
ATOM     14  C   UNL     1     105.696 139.323 162.124  0.00  0.00    +0.000 C 
BRANCH  14  16
ATOM     15  O   UNL     1     105.945 138.235 163.014  0.00  0.00    +0.000 OA
ATOM     16  C   UNL     1     105.421 138.678 162.557  0.00  0.00    +0.000 C 
BRANCH  16  17
ATOM     17  C   UNL     1     104.621 138.476 162.535  0.00  0.00    +0.000 C 
BRANCH  17  18
ATOM     18  N   UNL     1     104.397 137.696 162.389  0.00  0.00    +0.000 NA
ATOM     19  C   UNL     1     104.544 137.355 161.652  0.00  0.00    +0.000 C 
BRANCH  18  20
ATOM     20  C   UNL     1     104.025 137.255 162.980  0.00  0.00    +0.000 C 
BRANCH  20  22
ATOM     21  O   UNL     1     103.108 136.231 163.368  0.00  0.00    +0.000 OA
ATOM     22  C   UNL     1     103.487 136.665 162.777  0.00  0.00    +0.000 C 
ENDBRANCH  20  22
ENDBRANCH  18  20
ENDBRANCH  17  18
ENDBRANCH  16  17
ENDBRANCH  14  16
ENDBRANCH   3  14
TORSDOF 6
ENDMDL
MODEL 7
REMARK VINA RESULT:      -7.4      1.523      4.694
REMARK  Name = 
REMARK  6 active torsions:
REMARK  status: ('A' for Active; 'I' for Inactive)
REMARK    1  A    between atoms: N_5  and  C_15
REMARK    2  A    between atoms: N_9  and  C_19
REMARK    3  A    between atoms: N_9  and  C_20
REMARK    4  A    between atoms: C_15  and  C_18
REMARK    5  A    between atoms: C_18  and  C_19
REMARK    6  A    between atoms: C_20  and  C_22
REMARK                            x       y       z     vdW  Elec       q    Type
REMARK                         _______ _______ _______ _____ _____    ______ ____
ROOT
ATOM      1  O   UNL     1     105.040 138.691 162.005  0.00  0.00    +0.000 OA
ATOM      2  O   UNL     1     106.821 140.923 161.892  0.00  0.00    +0.000 OA
ATOM      3  N   UNL     1     105.325 138.682 163.774  0.00  0.00    +0.000 N 
ATOM      4  N   UNL     1     106.530 140.304 163.146  0.00  0.00    +0.000 N 
ATOM      5  N   UNL     1     105.931 139.807 161.949  0.00  0.00    +0.000 N 
ATOM      6  N   UNL     1     106.129 139.552 164.390  0.00  0.00    +0.000 NA
ATOM      7  C   UNL     1     105.639 139.188 163.203  0.00  0.00    +0.000 A 
ATOM      8  C   UNL     1     106.136 139.726 163.584  0.00  0.00    +0.000 A 
ATOM      9  C   UNL     1     105.537 139.229 162.385  0.00  0.00    +0.000 A 
ATOM     10  C   UNL     1     106.428 140.345 162.329  0.00  0.00    +0.000 A 
ATOM     11  C   UNL     1     105.628 138.907 164.508  0.00  0.00    +0.000 A 
ATOM     12  C   UNL     1     107.027 140.842 163.527  0.00  0.00    +0.000 C 
ATOM     13  C   UNL     1     105.828 139.848 161.131  0.00  0.00    +0.000 C 
ENDROOT
BRANCH   3  14
ATOM     14  C   UNL     1     104.801 138.061 163.636  0.00  0.00    +0.000 C 
BRANCH  14  16
ATOM     15  O   UNL     1     103.937 138.291 164.749  0.00  0.00    +0.000 OA
ATOM     16  C   UNL     1     104.336 137.769 164.250  0.00  0.00    +0.000 C 
BRANCH  16  17
ATOM     17  C   UNL     1     104.268 136.955 164.367  0.00  0.00    +0.000 C 
BRANCH  17  18
ATOM     18  N   UNL     1     103.524 136.610 164.452  0.00  0.00    +0.000 NA
ATOM     19  C   UNL     1     102.992 136.619 163.822  0.00  0.00    +0.000 C 
BRANCH  18  20
ATOM     20  C   UNL     1     103.312 136.256 165.166  0.00  0.00    +0.000 C 
BRANCH  20  22
ATOM     21  O   UNL     1     102.639 135.218 165.881  0.00  0.00    +0.000 OA
ATOM     22  C   UNL     1     102.840 135.580 165.168  0.00  0.00    +0.000 C 
ENDBRANCH  20  22
ENDBRANCH  18  20
ENDBRANCH  17  18
ENDBRANCH  16  17
ENDBRANCH  14  16
ENDBRANCH   3  14
TORSDOF 6
ENDMDL
MODEL 8
REMARK VINA RESULT:      -7.3      1.661      2.495
REMARK  Name = 
REMARK  6 active torsions:
REMARK  status: ('A' for Active; 'I' for Inactive)
REMARK    1  A    between atoms: N_5  and  C_15
REMARK    2  A    between atoms: N_9  and  C_19
REMARK    3  A    between atoms: N_9  and  C_20
REMARK    4  A    between atoms: C_15  and  C_18
REMARK    5  A    between atoms: C_18  and  C_19
REMARK    6  A    between atoms: C_20  and  C_22
REMARK                            x       y       z     vdW  Elec       q    Type
REMARK                         _______ _______ _______ _____ _____    ______ ____
ROOT
ATOM      1  O   UNL     1     105.005 138.694 163.854  0.00  0.00    +0.000 OA
ATOM      2  O   UNL     1     103.351 136.479 164.579  0.00  0.00    +0.000 OA
ATOM      3  N   UNL     1     104.785 138.172 162.155  0.00  0.00    +0.000 N 
ATOM      4  N   UNL     1     103.653 136.725 163.205  0.00  0.00    +0.000 N 
ATOM      5  N   UNL     1     104.178 137.587 164.217  0.00  0.00    +0.000 N 
ATOM      6  N   UNL     1     104.056 137.111 161.803  0.00  0.00    +0.000 NA
ATOM      7  C   UNL     1     104.480 137.834 162.842  0.00  0.00    +0.000 A 
ATOM      8  C   UNL     1     104.029 137.177 162.625  0.00  0.00    +0.000 A 
ATOM      9  C   UNL     1     104.554 138.038 163.638  0.00  0.00    +0.000 A 
ATOM     10  C   UNL     1     103.727 136.930 164.000  0.00  0.00    +0.000 A 
ATOM     11  C   UNL     1     104.522 137.725 161.512  0.00  0.00    +0.000 A 
ATOM     12  C   UNL     1     103.202 136.069 162.988  0.00  0.00    +0.000 C 
ATOM     13  C   UNL     1     104.252 137.791 165.012  0.00  0.00    +0.000 C 
ENDROOT
BRANCH   3  14
ATOM     14  C   UNL     1     105.267 138.840 162.116  0.00  0.00    +0.000 C 
BRANCH  14  16
ATOM     15  O   UNL     1     104.618 139.422 160.984  0.00  0.00    +0.000 OA
ATOM     16  C   UNL     1     105.304 139.282 161.421  0.00  0.00    +0.000 C 
BRANCH  16  17
ATOM     17  C   UNL     1     106.026 139.585 161.161  0.00  0.00    +0.000 C 
BRANCH  17  18
ATOM     18  N   UNL     1     106.107 140.392 161.015  0.00  0.00    +0.000 NA
ATOM     19  C   UNL     1     105.780 140.722 160.333  0.00  0.00    +0.000 C 
BRANCH  18  20
ATOM     20  C   UNL     1     106.514 140.871 161.549  0.00  0.00    +0.000 C 
BRANCH  20  22
ATOM     21  O   UNL     1     107.526 141.848 161.799  0.00  0.00    +0.000 OA
ATOM     22  C   UNL     1     107.029 141.453 161.273  0.00  0.00    +0.000 C 
ENDBRANCH  20  22
ENDBRANCH  18  20
ENDBRANCH  17  18
ENDBRANCH  16  17
ENDBRANCH  14  16
ENDBRANCH   3  14
TORSDOF 6
ENDMDL
MODEL 9
REMARK VINA RESULT:      -7.3      3.885      5.411
REMARK  Name = 
REMARK  6 active torsions:
REMARK  status: ('A' for Active; 'I' for Inactive)
REMARK    1  A    between atoms: N_5  and  C_15
REMARK    2  A    between atoms: N_9  and  C_19
REMARK    3  A    between atoms: N_9  and  C_20
REMARK    4  A    between atoms: C_15  and  C_18
REMARK    5  A    between atoms: C_18  and  C_19
REMARK    6  A    between atoms: C_20  and  C_22
REMARK                            x       y       z     vdW  Elec       q    Type
REMARK                         _______ _______ _______ _____ _____    ______ ____
ROOT
ATOM      1  O   UNL     1     106.246 143.851 164.373  0.00  0.00    +0.000 OA
ATOM      2  O   UNL     1     107.452 141.261 164.443  0.00  0.00    +0.000 OA
ATOM      3  N   UNL     1     105.092 143.235 165.598  0.00  0.00    +0.000 N 
ATOM      4  N   UNL     1     106.323 141.546 165.271  0.00  0.00    +0.000 N 
ATOM      5  N   UNL     1     106.849 142.556 164.408  0.00  0.00    +0.000 N 
ATOM      6  N   UNL     1     105.134 141.992 166.083  0.00  0.00    +0.000 NA
ATOM      7  C   UNL     1     105.720 142.841 165.236  0.00  0.00    +0.000 A 
ATOM      8  C   UNL     1     105.746 142.072 165.536  0.00  0.00    +0.000 A 
ATOM      9  C   UNL     1     106.272 143.082 164.672  0.00  0.00    +0.000 A 
ATOM     10  C   UNL     1     106.875 141.787 164.707  0.00  0.00    +0.000 A 
ATOM     11  C   UNL     1     104.730 142.710 166.122  0.00  0.00    +0.000 A 
ATOM     12  C   UNL     1     106.349 140.777 165.570  0.00  0.00    +0.000 C 
ATOM     13  C   UNL     1     107.400 142.798 163.844  0.00  0.00    +0.000 C 
ENDROOT
BRANCH   3  14
ATOM     14  C   UNL     1     104.867 144.016 165.462  0.00  0.00    +0.000 C 
BRANCH  14  16
ATOM     15  O   UNL     1     103.491 144.127 165.829  0.00  0.00    +0.000 OA
ATOM     16  C   UNL     1     104.277 144.362 165.922  0.00  0.00    +0.000 C 
BRANCH  16  17
ATOM     17  C   UNL     1     104.471 144.943 166.475  0.00  0.00    +0.000 C 
BRANCH  17  18
ATOM     18  N   UNL     1     104.024 145.634 166.522  0.00  0.00    +0.000 NA
ATOM     19  C   UNL     1     103.812 146.036 165.834  0.00  0.00    +0.000 C 
BRANCH  18  20
ATOM     20  C   UNL     1     103.788 145.924 167.258  0.00  0.00    +0.000 C 
BRANCH  20  22
ATOM     21  O   UNL     1     104.057 146.828 168.332  0.00  0.00    +0.000 OA
ATOM     22  C   UNL     1     104.073 146.649 167.526  0.00  0.00    +0.000 C 
ENDBRANCH  20  22
ENDBRANCH  18  20
ENDBRANCH  17  18
ENDBRANCH  16  17
ENDBRANCH  14  16
ENDBRANCH   3  14
TORSDOF 6
ENDMDL
MODEL 10
REMARK VINA RESULT:      -7.3      2.840      3.796
REMARK  Name = 
REMARK  6 active torsions:
REMARK  status: ('A' for Active; 'I' for Inactive)
REMARK    1  A    between atoms: N_5  and  C_15
REMARK    2  A    between atoms: N_9  and  C_19
REMARK    3  A    between atoms: N_9  and  C_20
REMARK    4  A    between atoms: C_15  and  C_18
REMARK    5  A    between atoms: C_18  and  C_19
REMARK    6  A    between atoms: C_20  and  C_22
REMARK                            x       y       z     vdW  Elec       q    Type
REMARK                         _______ _______ _______ _____ _____    ______ ____
ROOT
ATOM      1  O   UNL     1     105.500 139.378 161.080  0.00  0.00    +0.000 OA
ATOM      2  O   UNL     1     106.043 139.038 163.865  0.00  0.00    +0.000 OA
ATOM      3  N   UNL     1     106.229 141.007 161.241  0.00  0.00    +0.000 N 
ATOM      4  N   UNL     1     106.398 140.257 163.213  0.00  0.00    +0.000 N 
ATOM      5  N   UNL     1     105.772 139.208 162.473  0.00  0.00    +0.000 N 
ATOM      6  N   UNL     1     106.714 141.482 162.391  0.00  0.00    +0.000 NA
ATOM      7  C   UNL     1     106.127 140.428 161.819  0.00  0.00    +0.000 A 
ATOM      8  C   UNL     1     106.426 140.721 162.530  0.00  0.00    +0.000 A 
ATOM      9  C   UNL     1     105.799 139.671 161.791  0.00  0.00    +0.000 A 
ATOM     10  C   UNL     1     106.071 139.501 163.184  0.00  0.00    +0.000 A 
ATOM     11  C   UNL     1     106.592 141.659 161.594  0.00  0.00    +0.000 A 
ATOM     12  C   UNL     1     106.697 140.551 163.923  0.00  0.00    +0.000 C 
ATOM     13  C   UNL     1     105.444 138.451 162.444  0.00  0.00    +0.000 C 
ENDROOT
BRANCH   3  14
ATOM     14  C   UNL     1     106.008 140.945 160.449  0.00  0.00    +0.000 C 
BRANCH  14  16
ATOM     15  O   UNL     1     106.738 141.983 159.793  0.00  0.00    +0.000 OA
ATOM     16  C   UNL     1     106.022 141.612 159.964  0.00  0.00    +0.000 C 
BRANCH  16  17
ATOM     17  C   UNL     1     105.319 141.908 159.650  0.00  0.00    +0.000 C 
BRANCH  17  18
ATOM     18  N   UNL     1     105.276 142.107 158.851  0.00  0.00    +0.000 NA
ATOM     19  C   UNL     1     105.539 142.846 158.595  0.00  0.00    +0.000 C 
BRANCH  18  20
ATOM     20  C   UNL     1     104.969 141.568 158.306  0.00  0.00    +0.000 C 
BRANCH  20  22
ATOM     21  O   UNL     1     104.190 141.299 157.139  0.00  0.00    +0.000 OA
ATOM     22  C   UNL     1     104.556 141.838 157.646  0.00  0.00    +0.000 C 
ENDBRANCH  20  22
ENDBRANCH  18  20
ENDBRANCH  17  18
ENDBRANCH  16  17
ENDBRANCH  14  16
ENDBRANCH   3  14
TORSDOF 6
ENDMDL
MODEL 11
REMARK VINA RESULT:      -7.3     34.832     36.907
REMARK  Name = 
REMARK  6 active torsions:
REMARK  status: ('A' for Active; 'I' for Inactive)
REMARK    1  A    between atoms: N_5  and  C_15
REMARK    2  A    between atoms: N_9  and  C_19
REMARK    3  A    between atoms: N_9  and  C_20
REMARK    4  A    between atoms: C_15  and  C_18
REMARK    5  A    between atoms: C_18  and  C_19
REMARK    6  A    between atoms: C_20  and  C_22
REMARK                            x       y       z     vdW  Elec       q    Type
REMARK                         _______ _______ _______ _____ _____    ______ ____
ROOT
ATOM      1  O   UNL     1     133.154 150.350 186.925  0.00  0.00    +0.000 OA
ATOM      2  O   UNL     1     135.509 151.582 185.876  0.00  0.00    +0.000 OA
ATOM      3  N   UNL     1     132.255 151.195 185.625  0.00  0.00    +0.000 N 
ATOM      4  N   UNL     1     134.242 151.829 185.265  0.00  0.00    +0.000 N 
ATOM      5  N   UNL     1     134.331 150.966 186.400  0.00  0.00    +0.000 N 
ATOM      6  N   UNL     1     132.841 151.993 184.730  0.00  0.00    +0.000 NA
ATOM      7  C   UNL     1     133.063 151.213 185.789  0.00  0.00    +0.000 A 
ATOM      8  C   UNL     1     133.426 151.706 185.236  0.00  0.00    +0.000 A 
ATOM      9  C   UNL     1     133.517 150.843 186.372  0.00  0.00    +0.000 A 
ATOM     10  C   UNL     1     134.694 151.459 185.847  0.00  0.00    +0.000 A 
ATOM     11  C   UNL     1     132.118 151.678 184.970  0.00  0.00    +0.000 A 
ATOM     12  C   UNL     1     134.604 152.322 184.711  0.00  0.00    +0.000 C 
ATOM     13  C   UNL     1     134.784 150.596 186.982  0.00  0.00    +0.000 C 
ENDROOT
BRANCH   3  14
ATOM     14  C   UNL     1     131.685 150.771 186.042  0.00  0.00    +0.000 C 
BRANCH  14  16
ATOM     15  O   UNL     1     130.812 150.341 184.996  0.00  0.00    +0.000 OA
ATOM     16  C   UNL     1     130.924 150.690 185.735  0.00  0.00    +0.000 C 
BRANCH  16  17
ATOM     17  C   UNL     1     130.274 150.959 186.166  0.00  0.00    +0.000 C 
BRANCH  17  18
ATOM     18  N   UNL     1     129.646 150.449 186.328  0.00  0.00    +0.000 NA
ATOM     19  C   UNL     1     129.794 149.701 186.645  0.00  0.00    +0.000 C 
BRANCH  18  20
ATOM     20  C   UNL     1     128.871 150.685 186.174  0.00  0.00    +0.000 C 
BRANCH  20  22
ATOM     21  O   UNL     1     127.535 150.911 186.628  0.00  0.00    +0.000 OA
ATOM     22  C   UNL     1     128.292 150.608 186.756  0.00  0.00    +0.000 C 
ENDBRANCH  20  22
ENDBRANCH  18  20
ENDBRANCH  17  18
ENDBRANCH  16  17
ENDBRANCH  14  16
ENDBRANCH   3  14
TORSDOF 6
ENDMDL
MODEL 12
REMARK VINA RESULT:      -7.2     37.816     38.868
REMARK  Name = 
REMARK  6 active torsions:
REMARK  status: ('A' for Active; 'I' for Inactive)
REMARK    1  A    between atoms: N_5  and  C_15
REMARK    2  A    between atoms: N_9  and  C_19
REMARK    3  A    between atoms: N_9  and  C_20
REMARK    4  A    between atoms: C_15  and  C_18
REMARK    5  A    between atoms: C_18  and  C_19
REMARK    6  A    between atoms: C_20  and  C_22
REMARK                            x       y       z     vdW  Elec       q    Type
REMARK                         _______ _______ _______ _____ _____    ______ ____
ROOT
ATOM      1  O   UNL     1     129.182 127.274 191.625  0.00  0.00    +0.000 OA
ATOM      2  O   UNL     1     126.908 129.000 191.501  0.00  0.00    +0.000 OA
ATOM      3  N   UNL     1     130.000 128.440 190.538  0.00  0.00    +0.000 N 
ATOM      4  N   UNL     1     128.097 129.333 190.783  0.00  0.00    +0.000 N 
ATOM      5  N   UNL     1     128.045 128.137 191.563  0.00  0.00    +0.000 N 
ATOM      6  N   UNL     1     129.415 129.550 190.083  0.00  0.00    +0.000 NA
ATOM      7  C   UNL     1     129.235 128.470 190.845  0.00  0.00    +0.000 A 
ATOM      8  C   UNL     1     128.873 129.156 190.564  0.00  0.00    +0.000 A 
ATOM      9  C   UNL     1     128.820 127.960 191.345  0.00  0.00    +0.000 A 
ATOM     10  C   UNL     1     127.683 128.823 191.282  0.00  0.00    +0.000 A 
ATOM     11  C   UNL     1     130.111 129.108 190.066  0.00  0.00    +0.000 A 
ATOM     12  C   UNL     1     127.736 130.019 190.502  0.00  0.00    +0.000 C 
ATOM     13  C   UNL     1     127.631 127.627 192.062  0.00  0.00    +0.000 C 
ENDROOT
BRANCH   3  14
ATOM     14  C   UNL     1     130.555 127.847 190.677  0.00  0.00    +0.000 C 
BRANCH  14  16
ATOM     15  O   UNL     1     131.479 127.880 189.587  0.00  0.00    +0.000 OA
ATOM     16  C   UNL     1     131.326 127.930 190.397  0.00  0.00    +0.000 C 
BRANCH  16  17
ATOM     17  C   UNL     1     131.946 128.063 190.925  0.00  0.00    +0.000 C 
BRANCH  17  18
ATOM     18  N   UNL     1     132.570 127.526 190.974  0.00  0.00    +0.000 NA
ATOM     19  C   UNL     1     133.159 127.525 190.397  0.00  0.00    +0.000 C 
BRANCH  18  20
ATOM     20  C   UNL     1     132.604 126.989 191.599  0.00  0.00    +0.000 C 
BRANCH  20  22
ATOM     21  O   UNL     1     133.365 126.286 192.584  0.00  0.00    +0.000 OA
ATOM     22  C   UNL     1     133.333 126.771 191.917  0.00  0.00    +0.000 C 
ENDBRANCH  20  22
ENDBRANCH  18  20
ENDBRANCH  17  18
ENDBRANCH  16  17
ENDBRANCH  14  16
ENDBRANCH   3  14
TORSDOF 6
ENDMDL
MODEL 13
REMARK VINA RESULT:      -7.2     36.793     38.129
REMARK  Name = 
REMARK  6 active torsions:
REMARK  status: ('A' for Active; 'I' for Inactive)
REMARK    1  A    between atoms: N_5  and  C_15
REMARK    2  A    between atoms: N_9  and  C_19
REMARK    3  A    between atoms: N_9  and  C_20
REMARK    4  A    between atoms: C_15  and  C_18
REMARK    5  A    between atoms: C_18  and  C_19
REMARK    6  A    between atoms: C_20  and  C_22
REMARK                            x       y       z     vdW  Elec       q    Type
REMARK                         _______ _______ _______ _____ _____    ______ ____
ROOT
ATOM      1  O   UNL     1     122.433 112.247 181.489  0.00  0.00    +0.000 OA
ATOM      2  O   UNL     1     124.336 113.085 183.449  0.00  0.00    +0.000 OA
ATOM      3  N   UNL     1     122.013 110.916 182.614  0.00  0.00    +0.000 N 
ATOM      4  N   UNL     1     123.524 111.935 183.689  0.00  0.00    +0.000 N 
ATOM      5  N   UNL     1     123.384 112.666 182.469  0.00  0.00    +0.000 N 
ATOM      6  N   UNL     1     122.601 110.748 183.800  0.00  0.00    +0.000 NA
ATOM      7  C   UNL     1     122.572 111.515 182.709  0.00  0.00    +0.000 A 
ATOM      8  C   UNL     1     122.936 111.412 183.442  0.00  0.00    +0.000 A 
ATOM      9  C   UNL     1     122.797 112.143 182.223  0.00  0.00    +0.000 A 
ATOM     10  C   UNL     1     123.748 112.563 183.202  0.00  0.00    +0.000 A 
ATOM     11  C   UNL     1     122.031 110.441 183.289  0.00  0.00    +0.000 A 
ATOM     12  C   UNL     1     123.887 111.831 184.422  0.00  0.00    +0.000 C 
ATOM     13  C   UNL     1     123.609 113.293 181.983  0.00  0.00    +0.000 C 
ENDROOT
BRANCH   3  14
ATOM     14  C   UNL     1     121.523 110.810 181.960  0.00  0.00    +0.000 C 
BRANCH  14  16
ATOM     15  O   UNL     1     121.452 109.398 181.758  0.00  0.00    +0.000 OA
ATOM     16  C   UNL     1     121.076 110.121 181.886  0.00  0.00    +0.000 C 
BRANCH  16  17
ATOM     17  C   UNL     1     120.254 110.153 181.940  0.00  0.00    +0.000 C 
BRANCH  17  18
ATOM     18  N   UNL     1     119.790 109.994 181.278  0.00  0.00    +0.000 NA
ATOM     19  C   UNL     1     119.975 109.357 180.788  0.00  0.00    +0.000 C 
BRANCH  18  20
ATOM     20  C   UNL     1     119.139 110.472 181.104  0.00  0.00    +0.000 C 
BRANCH  20  22
ATOM     21  O   UNL     1     117.774 110.599 180.700  0.00  0.00    +0.000 OA
ATOM     22  C   UNL     1     118.451 110.137 180.798  0.00  0.00    +0.000 C 
ENDBRANCH  20  22
ENDBRANCH  18  20
ENDBRANCH  17  18
ENDBRANCH  16  17
ENDBRANCH  14  16
ENDBRANCH   3  14
TORSDOF 6
ENDMDL
MODEL 14
REMARK VINA RESULT:      -7.1     37.961     39.467
REMARK  Name = 
REMARK  6 active torsions:
REMARK  status: ('A' for Active; 'I' for Inactive)
REMARK    1  A    between atoms: N_5  and  C_15
REMARK    2  A    between atoms: N_9  and  C_19
REMARK    3  A    between atoms: N_9  and  C_20
REMARK    4  A    between atoms: C_15  and  C_18
REMARK    5  A    between atoms: C_18  and  C_19
REMARK    6  A    between atoms: C_20  and  C_22
REMARK                            x       y       z     vdW  Elec       q    Type
REMARK                         _______ _______ _______ _____ _____    ______ ____
ROOT
ATOM      1  O   UNL     1     123.459 111.395 184.535  0.00  0.00    +0.000 OA
ATOM      2  O   UNL     1     124.012 113.385 182.561  0.00  0.00    +0.000 OA
ATOM      3  N   UNL     1     122.269 110.721 183.377  0.00  0.00    +0.000 N 
ATOM      4  N   UNL     1     123.038 112.374 182.301  0.00  0.00    +0.000 N 
ATOM      5  N   UNL     1     123.735 112.390 183.548  0.00  0.00    +0.000 N 
ATOM      6  N   UNL     1     122.042 111.249 182.171  0.00  0.00    +0.000 NA
ATOM      7  C   UNL     1     122.761 111.378 183.288  0.00  0.00    +0.000 A 
ATOM      8  C   UNL     1     122.621 111.704 182.544  0.00  0.00    +0.000 A 
ATOM      9  C   UNL     1     123.319 111.722 183.790  0.00  0.00    +0.000 A 
ATOM     10  C   UNL     1     123.595 112.717 182.803  0.00  0.00    +0.000 A 
ATOM     11  C   UNL     1     121.825 110.642 182.686  0.00  0.00    +0.000 A 
ATOM     12  C   UNL     1     122.897 112.700 181.556  0.00  0.00    +0.000 C 
ATOM     13  C   UNL     1     124.293 112.733 184.050  0.00  0.00    +0.000 C 
ENDROOT
BRANCH   3  14
ATOM     14  C   UNL     1     122.229 110.231 184.038  0.00  0.00    +0.000 C 
BRANCH  14  16
ATOM     15  O   UNL     1     121.995 108.927 183.504  0.00  0.00    +0.000 OA
ATOM     16  C   UNL     1     121.780 109.540 184.013  0.00  0.00    +0.000 C 
BRANCH  16  17
ATOM     17  C   UNL     1     121.116 109.461 184.496  0.00  0.00    +0.000 C 
BRANCH  17  18
ATOM     18  N   UNL     1     121.126 108.931 185.127  0.00  0.00    +0.000 NA
ATOM     19  C   UNL     1     121.374 108.153 185.009  0.00  0.00    +0.000 C 
BRANCH  18  20
ATOM     20  C   UNL     1     120.887 109.178 185.878  0.00  0.00    +0.000 C 
BRANCH  20  22
ATOM     21  O   UNL     1     120.220 108.910 187.113  0.00  0.00    +0.000 OA
ATOM     22  C   UNL     1     120.509 108.649 186.386  0.00  0.00    +0.000 C 
ENDBRANCH  20  22
ENDBRANCH  18  20
ENDBRANCH  17  18
ENDBRANCH  16  17
ENDBRANCH  14  16
ENDBRANCH   3  14
TORSDOF 6
ENDMDL
MODEL 15
REMARK VINA RESULT:      -7.1      2.647      4.089
REMARK  Name = 
REMARK  6 active torsions:
REMARK  status: ('A' for Active; 'I' for Inactive)
REMARK    1  A    between atoms: N_5  and  C_15
REMARK    2  A    between atoms: N_9  and  C_19
REMARK    3  A    between atoms: N_9  and  C_20
REMARK    4  A    between atoms: C_15  and  C_18
REMARK    5  A    between atoms: C_18  and  C_19
REMARK    6  A    between atoms: C_20  and  C_22
REMARK                            x       y       z     vdW  Elec       q    Type
REMARK                         _______ _______ _______ _____ _____    ______ ____
ROOT
ATOM      1  O   UNL     1     107.281 142.457 162.133  0.00  0.00    +0.000 OA
ATOM      2  O   UNL     1     107.192 141.012 164.597  0.00  0.00    +0.000 OA
ATOM      3  N   UNL     1     106.366 141.092 161.417  0.00  0.00    +0.000 N 
ATOM      4  N   UNL     1     106.584 140.465 163.426  0.00  0.00    +0.000 N 
ATOM      5  N   UNL     1     107.236 141.735 163.365  0.00  0.00    +0.000 N 
ATOM      6  N   UNL     1     105.990 140.018 162.114  0.00  0.00    +0.000 NA
ATOM      7  C   UNL     1     106.628 141.187 162.193  0.00  0.00    +0.000 A 
ATOM      8  C   UNL     1     106.396 140.523 162.625  0.00  0.00    +0.000 A 
ATOM      9  C   UNL     1     107.049 141.793 162.564  0.00  0.00    +0.000 A 
ATOM     10  C   UNL     1     107.004 141.071 163.796  0.00  0.00    +0.000 A 
ATOM     11  C   UNL     1     105.971 140.369 161.368  0.00  0.00    +0.000 A 
ATOM     12  C   UNL     1     106.351 139.801 163.857  0.00  0.00    +0.000 C 
ATOM     13  C   UNL     1     107.657 142.340 163.735  0.00  0.00    +0.000 C 
ENDROOT
BRANCH   3  14
ATOM     14  C   UNL     1     106.479 141.626 160.799  0.00  0.00    +0.000 C 
BRANCH  14  16
ATOM     15  O   UNL     1     106.318 140.885 159.588  0.00  0.00    +0.000 OA
ATOM     16  C   UNL     1     106.095 141.509 160.078  0.00  0.00    +0.000 C 
BRANCH  16  17
ATOM     17  C   UNL     1     105.487 142.018 159.847  0.00  0.00    +0.000 C 
BRANCH  17  18
ATOM     18  N   UNL     1     105.489 142.346 159.091  0.00  0.00    +0.000 NA
ATOM     19  C   UNL     1     105.223 141.902 158.448  0.00  0.00    +0.000 C 
BRANCH  18  20
ATOM     20  C   UNL     1     105.757 143.118 158.976  0.00  0.00    +0.000 C 
BRANCH  20  22
ATOM     21  O   UNL     1     105.674 144.367 158.288  0.00  0.00    +0.000 OA
ATOM     22  C   UNL     1     105.405 143.596 158.404  0.00  0.00    +0.000 C 
ENDBRANCH  20  22
ENDBRANCH  18  20
ENDBRANCH  17  18
ENDBRANCH  16  17
ENDBRANCH  14  16
ENDBRANCH   3  14
TORSDOF 6
ENDMDL
MODEL 16
REMARK VINA RESULT:      -7.1     41.548     42.413
REMARK  Name = 
REMARK  6 active torsions:
REMARK  status: ('A' for Active; 'I' for Inactive)
REMARK    1  A    between atoms: N_5  and  C_15
REMARK    2  A    between atoms: N_9  and  C_19
REMARK    3  A    between atoms: N_9  and  C_20
REMARK    4  A    between atoms: C_15  and  C_18
REMARK    5  A    between atoms: C_18  and  C_19
REMARK    6  A    between atoms: C_20  and  C_22
REMARK                            x       y       z     vdW  Elec       q    Type
REMARK                         _______ _______ _______ _____ _____    ______ ____
ROOT
ATOM      1  O   UNL     1     139.751 129.842 185.010  0.00  0.00    +0.000 OA
ATOM      2  O   UNL     1     138.894 131.561 187.126  0.00  0.00    +0.000 OA
ATOM      3  N   UNL     1     141.297 130.748 185.038  0.00  0.00    +0.000 N 
ATOM      4  N   UNL     1     140.198 131.716 186.565  0.00  0.00    +0.000 N 
ATOM      5  N   UNL     1     139.323 130.702 186.068  0.00  0.00    +0.000 N 
ATOM      6  N   UNL     1     141.539 131.759 185.876  0.00  0.00    +0.000 NA
ATOM      7  C   UNL     1     140.627 130.857 185.506  0.00  0.00    +0.000 A 
ATOM      8  C   UNL     1     140.776 131.481 186.025  0.00  0.00    +0.000 A 
ATOM      9  C   UNL     1     139.900 130.467 185.529  0.00  0.00    +0.000 A 
ATOM     10  C   UNL     1     139.471 131.326 186.587  0.00  0.00    +0.000 A 
ATOM     11  C   UNL     1     141.861 131.306 185.266  0.00  0.00    +0.000 A 
ATOM     12  C   UNL     1     140.347 132.340 187.083  0.00  0.00    +0.000 C 
ATOM     13  C   UNL     1     138.596 130.312 186.090  0.00  0.00    +0.000 C 
ENDROOT
BRANCH   3  14
ATOM     14  C   UNL     1     141.388 130.182 184.445  0.00  0.00    +0.000 C 
BRANCH  14  16
ATOM     15  O   UNL     1     142.779 129.858 184.413  0.00  0.00    +0.000 OA
ATOM     16  C   UNL     1     142.099 130.129 184.031  0.00  0.00    +0.000 C 
BRANCH  16  17
ATOM     17  C   UNL     1     142.132 130.346 183.236  0.00  0.00    +0.000 C 
BRANCH  17  18
ATOM     18  N   UNL     1     142.332 129.788 182.663  0.00  0.00    +0.000 NA
ATOM     19  C   UNL     1     143.068 129.416 182.689  0.00  0.00    +0.000 C 
BRANCH  18  20
ATOM     20  C   UNL     1     141.796 129.601 182.064  0.00  0.00    +0.000 C 
BRANCH  20  22
ATOM     21  O   UNL     1     141.521 129.342 180.686  0.00  0.00    +0.000 OA
ATOM     22  C   UNL     1     142.054 129.544 181.283  0.00  0.00    +0.000 C 
ENDBRANCH  20  22
ENDBRANCH  18  20
ENDBRANCH  17  18
ENDBRANCH  16  17
ENDBRANCH  14  16
ENDBRANCH   3  14
TORSDOF 6
ENDMDL
MODEL 17
REMARK VINA RESULT:      -7.0     42.939     43.943
REMARK  Name = 
REMARK  6 active torsions:
REMARK  status: ('A' for Active; 'I' for Inactive)
REMARK    1  A    between atoms: N_5  and  C_15
REMARK    2  A    between atoms: N_9  and  C_19
REMARK    3  A    between atoms: N_9  and  C_20
REMARK    4  A    between atoms: C_15  and  C_18
REMARK    5  A    between atoms: C_18  and  C_19
REMARK    6  A    between atoms: C_20  and  C_22
REMARK                            x       y       z     vdW  Elec       q    Type
REMARK                         _______ _______ _______ _____ _____    ______ ____
ROOT
ATOM      1  O   UNL     1     139.398 135.926 189.870  0.00  0.00    +0.000 OA
ATOM      2  O   UNL     1     140.177 136.497 192.560  0.00  0.00    +0.000 OA
ATOM      3  N   UNL     1     139.965 134.252 190.169  0.00  0.00    +0.000 N 
ATOM      4  N   UNL     1     140.355 135.183 192.029  0.00  0.00    +0.000 N 
ATOM      5  N   UNL     1     139.788 136.211 191.215  0.00  0.00    +0.000 N 
ATOM      6  N   UNL     1     140.481 133.851 191.333  0.00  0.00    +0.000 NA
ATOM      7  C   UNL     1     139.966 134.897 190.683  0.00  0.00    +0.000 A 
ATOM      8  C   UNL     1     140.285 134.649 191.403  0.00  0.00    +0.000 A 
ATOM      9  C   UNL     1     139.717 135.679 190.590  0.00  0.00    +0.000 A 
ATOM     10  C   UNL     1     140.106 135.964 191.935  0.00  0.00    +0.000 A 
ATOM     11  C   UNL     1     140.284 133.605 190.570  0.00  0.00    +0.000 A 
ATOM     12  C   UNL     1     140.674 134.935 192.748  0.00  0.00    +0.000 C 
ATOM     13  C   UNL     1     139.539 136.992 191.121  0.00  0.00    +0.000 C 
ENDROOT
BRANCH   3  14
ATOM     14  C   UNL     1     139.694 134.254 189.390  0.00  0.00    +0.000 C 
BRANCH  14  16
ATOM     15  O   UNL     1     139.105 132.970 189.180  0.00  0.00    +0.000 OA
ATOM     16  C   UNL     1     139.653 133.548 188.966  0.00  0.00    +0.000 C 
BRANCH  16  17
ATOM     17  C   UNL     1     140.160 133.419 188.328  0.00  0.00    +0.000 C 
BRANCH  17  18
ATOM     18  N   UNL     1     139.862 133.136 187.614  0.00  0.00    +0.000 NA
ATOM     19  C   UNL     1     139.295 133.571 187.202  0.00  0.00    +0.000 C 
BRANCH  18  20
ATOM     20  C   UNL     1     140.130 132.416 187.311  0.00  0.00    +0.000 C 
BRANCH  20  22
ATOM     21  O   UNL     1     140.817 131.687 186.292  0.00  0.00    +0.000 OA
ATOM     22  C   UNL     1     140.470 132.386 186.561  0.00  0.00    +0.000 C 
ENDBRANCH  20  22
ENDBRANCH  18  20
ENDBRANCH  17  18
ENDBRANCH  16  17
ENDBRANCH  14  16
ENDBRANCH   3  14
TORSDOF 6
ENDMDL
MODEL 18
REMARK VINA RESULT:      -6.9     37.376     38.914
REMARK  Name = 
REMARK  6 active torsions:
REMARK  status: ('A' for Active; 'I' for Inactive)
REMARK    1  A    between atoms: N_5  and  C_15
REMARK    2  A    between atoms: N_9  and  C_19
REMARK    3  A    between atoms: N_9  and  C_20
REMARK    4  A    between atoms: C_15  and  C_18
REMARK    5  A    between atoms: C_18  and  C_19
REMARK    6  A    between atoms: C_20  and  C_22
REMARK                            x       y       z     vdW  Elec       q    Type
REMARK                         _______ _______ _______ _____ _____    ______ ____
ROOT
ATOM      1  O   UNL     1     122.965 110.809 184.216  0.00  0.00    +0.000 OA
ATOM      2  O   UNL     1     124.446 113.140 183.480  0.00  0.00    +0.000 OA
ATOM      3  N   UNL     1     122.096 110.993 182.659  0.00  0.00    +0.000 N 
ATOM      4  N   UNL     1     123.439 112.628 182.606  0.00  0.00    +0.000 N 
ATOM      5  N   UNL     1     123.705 111.974 183.848  0.00  0.00    +0.000 N 
ATOM      6  N   UNL     1     122.351 111.974 181.790  0.00  0.00    +0.000 NA
ATOM      7  C   UNL     1     122.698 111.462 182.973  0.00  0.00    +0.000 A 
ATOM      8  C   UNL     1     122.856 112.069 182.436  0.00  0.00    +0.000 A 
ATOM      9  C   UNL     1     123.123 111.415 183.679  0.00  0.00    +0.000 A 
ATOM     10  C   UNL     1     123.863 112.581 183.311  0.00  0.00    +0.000 A 
ATOM     11  C   UNL     1     121.882 111.310 181.928  0.00  0.00    +0.000 A 
ATOM     12  C   UNL     1     123.597 113.234 182.069  0.00  0.00    +0.000 C 
ATOM     13  C   UNL     1     124.130 111.927 184.554  0.00  0.00    +0.000 C 
ENDROOT
BRANCH   3  14
ATOM     14  C   UNL     1     121.767 110.326 183.013  0.00  0.00    +0.000 C 
BRANCH  14  16
ATOM     15  O   UNL     1     120.363 110.386 182.754  0.00  0.00    +0.000 OA
ATOM     16  C   UNL     1     121.083 109.987 182.700  0.00  0.00    +0.000 C 
BRANCH  16  17
ATOM     17  C   UNL     1     121.119 109.250 182.332  0.00  0.00    +0.000 C 
BRANCH  17  18
ATOM     18  N   UNL     1     120.618 108.642 182.575  0.00  0.00    +0.000 NA
ATOM     19  C   UNL     1     120.706 108.311 183.326  0.00  0.00    +0.000 C 
BRANCH  18  20
ATOM     20  C   UNL     1     120.029 108.364 182.069  0.00  0.00    +0.000 C 
BRANCH  20  22
ATOM     21  O   UNL     1     119.303 107.275 181.494  0.00  0.00    +0.000 OA
ATOM     22  C   UNL     1     119.915 107.553 181.973  0.00  0.00    +0.000 C 
ENDBRANCH  20  22
ENDBRANCH  18  20
ENDBRANCH  17  18
ENDBRANCH  16  17
ENDBRANCH  14  16
ENDBRANCH   3  14
TORSDOF 6
ENDMDL
MODEL 19
REMARK VINA RESULT:      -6.9     43.660     43.966
REMARK  Name = 
REMARK  6 active torsions:
REMARK  status: ('A' for Active; 'I' for Inactive)
REMARK    1  A    between atoms: N_5  and  C_15
REMARK    2  A    between atoms: N_9  and  C_19
REMARK    3  A    between atoms: N_9  and  C_20
REMARK    4  A    between atoms: C_15  and  C_18
REMARK    5  A    between atoms: C_18  and  C_19
REMARK    6  A    between atoms: C_20  and  C_22
REMARK                            x       y       z     vdW  Elec       q    Type
REMARK                         _______ _______ _______ _____ _____    ______ ____
ROOT
ATOM      1  O   UNL     1     140.092 135.450 190.355  0.00  0.00    +0.000 OA
ATOM      2  O   UNL     1     138.964 132.842 190.662  0.00  0.00    +0.000 OA
ATOM      3  N   UNL     1     139.109 135.932 191.774  0.00  0.00    +0.000 N 
ATOM      4  N   UNL     1     138.594 133.890 191.559  0.00  0.00    +0.000 N 
ATOM      5  N   UNL     1     139.528 134.146 190.509  0.00  0.00    +0.000 N 
ATOM      6  N   UNL     1     138.301 135.091 192.424  0.00  0.00    +0.000 NA
ATOM      7  C   UNL     1     139.157 135.195 191.406  0.00  0.00    +0.000 A 
ATOM      8  C   UNL     1     138.658 134.675 191.807  0.00  0.00    +0.000 A 
ATOM      9  C   UNL     1     139.592 134.930 190.756  0.00  0.00    +0.000 A 
ATOM     10  C   UNL     1     139.029 133.626 190.910  0.00  0.00    +0.000 A 
ATOM     11  C   UNL     1     138.579 135.867 192.403  0.00  0.00    +0.000 A 
ATOM     12  C   UNL     1     138.095 133.371 191.961  0.00  0.00    +0.000 C 
ATOM     13  C   UNL     1     139.963 133.882 189.859  0.00  0.00    +0.000 C 
ENDROOT
BRANCH   3  14
ATOM     14  C   UNL     1     139.517 136.613 191.552  0.00  0.00    +0.000 C 
BRANCH  14  16
ATOM     15  O   UNL     1     139.789 137.342 192.749  0.00  0.00    +0.000 OA
ATOM     16  C   UNL     1     139.446 137.301 192.000  0.00  0.00    +0.000 C 
BRANCH  16  17
ATOM     17  C   UNL     1     139.032 137.948 191.700  0.00  0.00    +0.000 C 
BRANCH  17  18
ATOM     18  N   UNL     1     139.365 138.702 191.729  0.00  0.00    +0.000 NA
ATOM     19  C   UNL     1     140.107 138.837 191.395  0.00  0.00    +0.000 C 
BRANCH  18  20
ATOM     20  C   UNL     1     138.958 139.320 192.093  0.00  0.00    +0.000 C 
BRANCH  20  22
ATOM     21  O   UNL     1     138.323 140.598 192.005  0.00  0.00    +0.000 OA
ATOM     22  C   UNL     1     138.808 140.016 191.677  0.00  0.00    +0.000 C 
ENDBRANCH  20  22
ENDBRANCH  18  20
ENDBRANCH  17  18
ENDBRANCH  16  17
ENDBRANCH  14  16
ENDBRANCH   3  14
TORSDOF 6
ENDMDL
MODEL 20
REMARK VINA RESULT:      -6.9     38.904     40.363
REMARK  Name = 
REMARK  6 active torsions:
REMARK  status: ('A' for Active; 'I' for Inactive)
REMARK    1  A    between atoms: N_5  and  C_15
REMARK    2  A    between atoms: N_9  and  C_19
REMARK    3  A    between atoms: N_9  and  C_20
REMARK    4  A    between atoms: C_15  and  C_18
REMARK    5  A    between atoms: C_18  and  C_19
REMARK    6  A    between atoms: C_20  and  C_22
REMARK                            x       y       z     vdW  Elec       q    Type
REMARK                         _______ _______ _______ _____ _____    ______ ____
ROOT
ATOM      1  O   UNL     1     123.055 110.634 182.337  0.00  0.00    +0.000 OA
ATOM      2  O   UNL     1     123.922 113.346 182.583  0.00  0.00    +0.000 OA
ATOM      3  N   UNL     1     123.824 110.350 183.930  0.00  0.00    +0.000 N 
ATOM      4  N   UNL     1     124.216 112.406 183.617  0.00  0.00    +0.000 N 
ATOM      5  N   UNL     1     123.488 111.990 182.460  0.00  0.00    +0.000 N 
ATOM      6  N   UNL     1     124.451 111.305 184.621  0.00  0.00    +0.000 NA
ATOM      7  C   UNL     1     123.783 111.049 183.495  0.00  0.00    +0.000 A 
ATOM      8  C   UNL     1     124.170 111.640 183.921  0.00  0.00    +0.000 A 
ATOM      9  C   UNL     1     123.442 111.225 182.764  0.00  0.00    +0.000 A 
ATOM     10  C   UNL     1     123.876 112.581 182.887  0.00  0.00    +0.000 A 
ATOM     11  C   UNL     1     124.238 110.508 184.627  0.00  0.00    +0.000 A 
ATOM     12  C   UNL     1     124.604 112.996 184.044  0.00  0.00    +0.000 C 
ATOM     13  C   UNL     1     123.148 112.165 181.730  0.00  0.00    +0.000 C 
ENDROOT
BRANCH   3  14
ATOM     14  C   UNL     1     123.509 109.621 183.709  0.00  0.00    +0.000 C 
BRANCH  14  16
ATOM     15  O   UNL     1     124.278 108.629 184.388  0.00  0.00    +0.000 OA
ATOM     16  C   UNL     1     123.550 108.980 184.225  0.00  0.00    +0.000 C 
BRANCH  16  17
ATOM     17  C   UNL     1     122.864 108.689 184.578  0.00  0.00    +0.000 C 
BRANCH  17  18
ATOM     18  N   UNL     1     122.678 107.888 184.521  0.00  0.00    +0.000 NA
ATOM     19  C   UNL     1     122.588 107.537 183.780  0.00  0.00    +0.000 C 
BRANCH  18  20
ATOM     20  C   UNL     1     122.581 107.436 185.205  0.00  0.00    +0.000 C 
BRANCH  20  22
ATOM     21  O   UNL     1     121.832 106.486 185.965  0.00  0.00    +0.000 OA
ATOM     22  C   UNL     1     121.929 106.938 185.282  0.00  0.00    +0.000 C 
ENDBRANCH  20  22
ENDBRANCH  18  20
ENDBRANCH  17  18
ENDBRANCH  16  17
ENDBRANCH  14  16
ENDBRANCH   3  14
TORSDOF 6
ENDMDL
