
     RDKit          2D

 24 23  0  0  0  0  0  0  0  0999 V2000
    3.8292   -0.1542    0.0000 C   0  0  0  0  0  0  0  0  0  0  0  0
    4.3000   -0.2750    0.0000 O   0  0  0  0  0  0  0  0  0  0  0  0
    0.3167   -0.1792    0.0000 C   0  0  0  0  0  0  0  0  0  0  0  0
   -0.2958   -0.1792    0.0000 C   0  0  0  0  0  0  0  0  0  0  0  0
    2.0500   -0.1542    0.0000 C   0  0  0  0  0  0  0  0  0  0  0  0
   -0.8208   -0.2000    0.0000 C   0  0  0  0  0  0  0  0  0  0  0  0
   -1.3833   -0.2000    0.0000 C   0  0  0  0  0  0  0  0  0  0  0  0
    0.8875   -0.1542    0.0000 C   0  0  0  0  0  0  0  0  0  0  0  0
   -1.9083   -0.2417    0.0000 C   0  0  0  0  0  0  0  0  0  0  0  0
    1.5000   -0.1542    0.0000 C   0  0  0  0  0  0  0  0  0  0  0  0
   -2.5125   -0.2417    0.0000 C   0  0  0  0  0  0  0  0  0  0  0  0
   -3.0958   -0.2917    0.0000 C   0  0  0  0  0  0  0  0  0  0  0  0
   -3.7250   -0.2792    0.0000 C   0  0  0  0  0  0  0  0  0  0  0  0
    2.6792   -0.1542    0.0000 C   0  0  0  0  0  0  0  0  0  0  0  0
    3.9792    0.2833    0.0000 O   0  0  0  0  0  0  0  0  0  0  0  0
   -1.6333    0.3458    0.0000 C   0  0  0  0  0  0  0  0  0  0  0  0
    0.5875    0.3708    0.0000 C   0  0  0  0  0  0  0  0  0  0  0  0
   -2.7958    0.3083    0.0000 C   0  0  0  0  0  0  0  0  0  0  0  0
    1.7500    0.3708    0.0000 C   0  0  0  0  0  0  0  0  0  0  0  0
   -0.5208    0.3875    0.0000 C   0  0  0  0  0  0  0  0  0  0  0  0
    3.2542   -0.1542    0.0000 C   0  0  0  0  0  0  0  0  0  0  0  0
    2.9542    0.3250    0.0000 C   0  0  0  0  0  0  0  0  0  0  0  0
   -3.9958    0.2625    0.0000 C   0  0  0  0  0  0  0  0  0  0  0  0
   -4.3458   -0.2917    0.0000 C   0  0  0  0  0  0  0  0  0  0  0  0
  2  1  2  0
  3 17  1  0
  4  3  2  0
  5 14  2  0
  6 20  1  0
  7  6  2  0
  8 10  2  0
  9 16  1  0
 10 19  1  0
 11  9  2  0
 12 18  1  0
 13 12  2  0
 14 22  1  0
 15  1  1  0
 16  7  1  0
 17  8  1  0
 18 11  1  0
 19  5  1  0
 20  4  1  0
 21  1  1  0
 22 21  1  0
 23 13  1  0
 24 23  1  0
M  END


> <chembl_id>
CHEMBL367149

> <chembl_pref_name>
DOCONEXENT
