
     RDKit          2D

 19 20  0  0  0  0  0  0  0  0999 V2000
    0.3542   -0.0625    0.0000 C   0  0  0  0  0  0  0  0  0  0  0  0
    0.0375   -1.0542    0.0000 N   0  0  0  0  0  0  0  0  0  0  0  0
   -0.4833    0.5458    0.0000 S   0  0  0  0  0  0  0  0  0  0  0  0
   -1.0083   -1.0542    0.0000 C   0  0  0  0  0  0  0  0  0  0  0  0
   -1.3333   -0.0625    0.0000 C   0  0  0  0  0  0  0  0  0  0  0  0
    1.3542    0.2625    0.0000 C   0  0  0  0  0  0  0  0  0  0  0  0
   -2.3208    0.2625    0.0000 N   0  0  0  0  0  0  0  0  0  0  0  0
    1.5667    1.2833    0.0000 C   0  0  0  0  0  0  0  0  0  0  0  0
   -1.6250   -1.8917    0.0000 O   0  0  0  0  0  0  0  0  0  0  0  0
    0.8000    1.9958    0.0000 O   0  0  0  0  0  0  0  0  0  0  0  0
    0.6542   -1.8917    0.0000 C   0  0  0  0  0  0  0  0  0  0  0  0
    2.5542    1.5958    0.0000 O   0  0  0  0  0  0  0  0  0  0  0  0
   -2.5625    1.2958    0.0000 C   0  0  0  0  0  0  0  0  0  0  0  0
   -3.0875   -0.4375    0.0000 C   0  0  0  0  0  0  0  0  0  0  0  0
    3.3417    0.9083    0.0000 C   0  0  0  0  0  0  0  0  0  0  0  0
   -3.5833    1.5958    0.0000 C   0  0  0  0  0  0  0  0  0  0  0  0
   -4.1083   -0.1375    0.0000 C   0  0  0  0  0  0  0  0  0  0  0  0
    4.3417    1.2083    0.0000 C   0  0  0  0  0  0  0  0  0  0  0  0
   -4.3458    0.8833    0.0000 C   0  0  0  0  0  0  0  0  0  0  0  0
  2  1  1  0
  3  1  1  0
  4  2  1  0
  5  3  1  0
  6  1  2  0
  7  5  1  0
  8  6  1  0
  9  4  2  0
 10  8  2  0
 11  2  1  0
 12  8  1  0
 13  7  1  0
 14  7  1  0
 15 12  1  0
 16 13  1  0
 17 14  1  0
 18 15  1  0
 19 17  1  0
  5  4  1  0
 16 19  1  0
M  END


> <chembl_id>
CHEMBL330829

> <chembl_pref_name>
ETOZOLIN
