REMARK  Name = 
REMARK  7 active torsions:
REMARK  status: ('A' for Active; 'I' for Inactive)
REMARK    1  A    between atoms: C_1  and  C_2
REMARK    2  A    between atoms: C_1  and  O_4
REMARK    3  A    between atoms: C_2  and  C_5
REMARK    4  A    between atoms: N_3  and  C_7
REMARK    5  A    between atoms: O_4  and  C_10
REMARK    6  A    between atoms: C_6  and  C_7
REMARK    7  A    between atoms: C_6  and  C_10
REMARK                            x       y       z     vdW  Elec       q    Type
REMARK                         _______ _______ _______ _____ _____    ______ ____
ROOT
ATOM      1  C   UNL     1       1.329  -2.550   0.000  0.00  0.00    +0.000 C 
ATOM      2  C   UNL     1       0.900  -1.988   0.000  0.00  0.00    +0.000 C 
ATOM      3  C   UNL     1       1.142  -3.229   0.000  0.00  0.00    +0.000 C 
ATOM      4  C   UNL     1       0.500  -3.517   0.000  0.00  0.00    +0.000 C 
ATOM      5  C   UNL     1       0.200  -1.954   0.000  0.00  0.00    +0.000 C 
ATOM      6  C   UNL     1      -0.121  -3.200   0.000  0.00  0.00    +0.000 C 
ATOM      7  C   UNL     1      -0.250  -2.500   0.000  0.00  0.00    +0.000 C 
ENDROOT
BRANCH   1   8
ATOM      8  C   UNL     1       2.004  -2.367   0.000  0.00  0.00    +0.000 C 
BRANCH   8   9
ATOM      9  C   UNL     1       2.192  -1.688   0.000  0.00  0.00    +0.000 A 
ATOM     10  C   UNL     1       2.875  -1.504   0.000  0.00  0.00    +0.000 A 
ATOM     11  C   UNL     1       1.692  -1.188   0.000  0.00  0.00    +0.000 A 
ATOM     12  C   UNL     1       1.863  -0.504   0.000  0.00  0.00    +0.000 A 
ATOM     13  C   UNL     1       3.054  -0.817   0.000  0.00  0.00    +0.000 A 
ATOM     14  C   UNL     1       2.554  -0.325   0.000  0.00  0.00    +0.000 A 
ENDBRANCH   8   9
ENDBRANCH   1   8
BRANCH   1  15
ATOM     15  O   UNL     1       1.979  -3.075   0.000  0.00  0.00    +0.000 OA
BRANCH  15  16
ATOM     16  C   UNL     1       2.317  -3.663   0.000  0.00  0.00    +0.000 C 
BRANCH  16  17
ATOM     17  C   UNL     1       3.029  -3.642   0.000  0.00  0.00    +0.000 C 
BRANCH  17  18
ATOM     18  C   UNL     1       3.404  -4.242   0.000  0.00  0.00    +0.000 C 
BRANCH  18  19
ATOM     19  N   UNL     1       4.117  -4.229   0.000  0.00  0.00    +0.000 NA
ATOM     20  C   UNL     1       4.442  -3.617   0.000  0.00  0.00    +0.000 C 
ATOM     21  C   UNL     1       4.467  -4.829   0.000  0.00  0.00    +0.000 C 
ENDBRANCH  18  19
ENDBRANCH  17  18
ENDBRANCH  16  17
ENDBRANCH  15  16
ENDBRANCH   1  15
TORSDOF 7
