REMARK  Name = 
REMARK  1 active torsions:
REMARK  status: ('A' for Active; 'I' for Inactive)
REMARK    1  A    between atoms: C_3  and  C_9
REMARK                            x       y       z     vdW  Elec       q    Type
REMARK                         _______ _______ _______ _____ _____    ______ ____
ROOT
ATOM      1  N   UNL     1       5.767  -3.917   0.000  0.00  0.00    +0.000 N 
ATOM      2  C   UNL     1       5.200  -5.075   0.000  0.00  0.00    +0.000 A 
ATOM      3  C   UNL     1       5.775  -5.525   0.000  0.00  0.00    +0.000 C 
ATOM      4  C   UNL     1       5.200  -4.354   0.000  0.00  0.00    +0.000 A 
ATOM      5  N   UNL     1       6.463  -5.354   0.000  0.00  0.00    +0.000 NA
ATOM      6  N   UNL     1       6.354  -2.942   0.000  0.00  0.00    +0.000 NA
ATOM      7  C   UNL     1       6.454  -4.067   0.000  0.00  0.00    +0.000 A 
ATOM      8  C   UNL     1       5.692  -3.217   0.000  0.00  0.00    +0.000 A 
ATOM      9  C   UNL     1       6.804  -3.467   0.000  0.00  0.00    +0.000 A 
ATOM     10  C   UNL     1       6.754  -4.729   0.000  0.00  0.00    +0.000 C 
ATOM     11  C   UNL     1       4.588  -4.017   0.000  0.00  0.00    +0.000 A 
ATOM     12  C   UNL     1       4.592  -5.438   0.000  0.00  0.00    +0.000 A 
ATOM     13  C   UNL     1       3.975  -5.079   0.000  0.00  0.00    +0.000 A 
ATOM     14  C   UNL     1       3.975  -4.362   0.000  0.00  0.00    +0.000 A 
ATOM     15 CL   UNL     1       3.367  -5.438   0.000  0.00  0.00    +0.000 Cl
ATOM     16  C   UNL     1       5.079  -2.862   0.000  0.00  0.00    +0.000 C 
ENDROOT
BRANCH   3  17
ATOM     17  C   UNL     1       5.425  -6.129   0.000  0.00  0.00    +0.000 A 
ATOM     18  C   UNL     1       5.767  -6.750   0.000  0.00  0.00    +0.000 A 
ATOM     19  F   UNL     1       6.487  -6.763   0.000  0.00  0.00    +0.000 F 
ATOM     20  C   UNL     1       4.692  -6.129   0.000  0.00  0.00    +0.000 A 
ATOM     21  C   UNL     1       5.417  -7.350   0.000  0.00  0.00    +0.000 A 
ATOM     22  C   UNL     1       4.338  -6.742   0.000  0.00  0.00    +0.000 A 
ATOM     23  C   UNL     1       4.704  -7.354   0.000  0.00  0.00    +0.000 A 
ENDBRANCH   3  17
TORSDOF 1
