REMARK  Name = 
REMARK  1 active torsions:
REMARK  status: ('A' for Active; 'I' for Inactive)
REMARK    1  A    between atoms: C_1  and  C_2
REMARK                            x       y       z     vdW  Elec       q    Type
REMARK                         _______ _______ _______ _____ _____    ______ ____
ROOT
ATOM      1  C   UNL     1      -0.087   0.033   0.000  0.00  0.00    +0.000 A 
ATOM      2  C   UNL     1      -0.087   1.483   0.000  0.00  0.00    +0.000 A 
ATOM      3  O   UNL     1       1.137   2.221   0.000  0.00  0.00    +0.000 OA
ATOM      4  C   UNL     1      -1.321  -0.675   0.000  0.00  0.00    +0.000 A 
ATOM      5  C   UNL     1      -1.321   2.188   0.000  0.00  0.00    +0.000 A 
ATOM      6  C   UNL     1      -2.546   0.071   0.000  0.00  0.00    +0.000 A 
ATOM      7  C   UNL     1      -2.546   1.483   0.000  0.00  0.00    +0.000 A 
ENDROOT
BRANCH   1   8
ATOM      8  C   UNL     1       1.175  -0.675   0.000  0.00  0.00    +0.000 C 
ATOM      9  O   UNL     1       1.175  -2.125   0.000  0.00  0.00    +0.000 OA
ATOM     10  O   UNL     1       2.438   0.033   0.000  0.00  0.00    +0.000 OA
ENDBRANCH   1   8
TORSDOF 1
