REMARK  Name = 
REMARK  8 active torsions:
REMARK  status: ('A' for Active; 'I' for Inactive)
REMARK    1  A    between atoms: N_1  and  O_4
REMARK    2  A    between atoms: N_2  and  O_8
REMARK    3  A    between atoms: N_3  and  O_9
REMARK    4  A    between atoms: O_4  and  C_10
REMARK    5  A    between atoms: O_8  and  C_14
REMARK    6  A    between atoms: O_9  and  C_15
REMARK    7  A    between atoms: C_10  and  C_14
REMARK    8  A    between atoms: C_10  and  C_15
REMARK                            x       y       z     vdW  Elec       q    Type
REMARK                         _______ _______ _______ _____ _____    ______ ____
ROOT
ATOM      1  C   UNL     1       4.987  -4.725   0.000  0.00  0.00    +0.000 C 
ENDROOT
BRANCH   1   2
ATOM      2  O   UNL     1       4.987  -5.429   0.000  0.00  0.00    +0.000 OA
BRANCH   2   3
ATOM      3  N   UNL     1       5.600  -5.787   0.000  0.00  0.00    +0.000 N 
ATOM      4  O   UNL     1       5.600  -6.492   0.000  0.00  0.00    +0.000 OA
ATOM      5  O   UNL     1       6.213  -5.417   0.000  0.00  0.00    +0.000 OA
ENDBRANCH   2   3
ENDBRANCH   1   2
BRANCH   1   6
ATOM      6  C   UNL     1       5.604  -4.367   0.000  0.00  0.00    +0.000 C 
BRANCH   6   7
ATOM      7  O   UNL     1       6.225  -4.725   0.000  0.00  0.00    +0.000 OA
BRANCH   7   8
ATOM      8  N   UNL     1       6.838  -4.367   0.000  0.00  0.00    +0.000 N 
ATOM      9  O   UNL     1       7.429  -4.742   0.000  0.00  0.00    +0.000 OA
ATOM     10  O   UNL     1       6.829  -3.654   0.000  0.00  0.00    +0.000 OA
ENDBRANCH   7   8
ENDBRANCH   6   7
ENDBRANCH   1   6
BRANCH   1  11
ATOM     11  C   UNL     1       4.367  -4.367   0.000  0.00  0.00    +0.000 C 
BRANCH  11  12
ATOM     12  O   UNL     1       3.754  -4.725   0.000  0.00  0.00    +0.000 OA
BRANCH  12  13
ATOM     13  N   UNL     1       3.142  -4.379   0.000  0.00  0.00    +0.000 N 
ATOM     14  O   UNL     1       3.142  -3.667   0.000  0.00  0.00    +0.000 OA
ATOM     15  O   UNL     1       2.529  -4.742   0.000  0.00  0.00    +0.000 OA
ENDBRANCH  12  13
ENDBRANCH  11  12
ENDBRANCH   1  11
TORSDOF 8
