REMARK  Name = 
REMARK  14 active torsions:
REMARK  status: ('A' for Active; 'I' for Inactive)
REMARK    1  A    between atoms: S_1  and  N_2
REMARK    2  A    between atoms: N_2  and  C_8
REMARK    3  A    between atoms: C_5  and  C_10
REMARK    4  A    between atoms: C_10  and  C_17
REMARK    5  A    between atoms: N_11  and  C_16
REMARK    6  A    between atoms: N_11  and  C_18
REMARK    7  A    between atoms: N_11  and  C_19
REMARK    8  A    between atoms: C_15  and  C_16
REMARK    9  A    between atoms: C_15  and  C_17
REMARK   10  A    between atoms: C_19  and  C_20
REMARK   11  A    between atoms: C_20  and  C_23
REMARK   12  A    between atoms: C_21  and  C_22
REMARK   13  A    between atoms: C_22  and  C_24
REMARK   14  A    between atoms: C_23  and  C_24
REMARK                            x       y       z     vdW  Elec       q    Type
REMARK                         _______ _______ _______ _____ _____    ______ ____
ROOT
ATOM      1  C   UNL     1       1.250  -4.250   0.000  0.00  0.00    +0.000 C 
ATOM      2  O   UNL     1       1.250  -5.054   0.000  0.00  0.00    +0.000 OA
ENDROOT
BRANCH   1   3
ATOM      3  C   UNL     1       0.679  -3.892   0.000  0.00  0.00    +0.000 A 
ATOM      4  C   UNL     1       0.679  -3.167   0.000  0.00  0.00    +0.000 A 
ATOM      5  C   UNL     1       0.029  -4.250   0.000  0.00  0.00    +0.000 A 
ATOM      6  C   UNL     1      -0.596  -3.167   0.000  0.00  0.00    +0.000 A 
ATOM      7  C   UNL     1       0.029  -2.800   0.000  0.00  0.00    +0.000 A 
ATOM      8  C   UNL     1      -0.596  -3.892   0.000  0.00  0.00    +0.000 A 
BRANCH   6   9
ATOM      9  N   UNL     1      -1.225  -2.804   0.000  0.00  0.00    +0.000 NA
BRANCH   9  10
ATOM     10  S   UNL     1      -1.837  -3.163   0.000  0.00  0.00    +0.000 S 
ATOM     11  O   UNL     1      -1.488  -3.775   0.000  0.00  0.00    +0.000 OA
ATOM     12  O   UNL     1      -2.196  -3.775   0.000  0.00  0.00    +0.000 OA
ATOM     13  C   UNL     1      -2.454  -2.812   0.000  0.00  0.00    +0.000 C 
ENDBRANCH   9  10
ENDBRANCH   6   9
ENDBRANCH   1   3
BRANCH   1  14
ATOM     14  C   UNL     1       1.892  -3.892   0.000  0.00  0.00    +0.000 C 
BRANCH  14  15
ATOM     15  C   UNL     1       2.467  -4.217   0.000  0.00  0.00    +0.000 C 
BRANCH  15  16
ATOM     16  C   UNL     1       3.087  -3.892   0.000  0.00  0.00    +0.000 C 
BRANCH  16  17
ATOM     17  N   UNL     1       3.667  -4.217   0.000  0.00  0.00    +0.000 NA
BRANCH  17  18
ATOM     18  C   UNL     1       3.667  -4.950   0.000  0.00  0.00    +0.000 C 
ATOM     19  C   UNL     1       4.267  -5.304   0.000  0.00  0.00    +0.000 C 
ENDBRANCH  17  18
BRANCH  17  20
ATOM     20  C   UNL     1       4.267  -3.862   0.000  0.00  0.00    +0.000 C 
BRANCH  20  21
ATOM     21  C   UNL     1       4.842  -4.217   0.000  0.00  0.00    +0.000 C 
BRANCH  21  22
ATOM     22  C   UNL     1       5.467  -3.862   0.000  0.00  0.00    +0.000 C 
BRANCH  22  23
ATOM     23  C   UNL     1       6.037  -4.204   0.000  0.00  0.00    +0.000 C 
BRANCH  23  24
ATOM     24  C   UNL     1       6.629  -3.862   0.000  0.00  0.00    +0.000 C 
BRANCH  24  25
ATOM     25  C   UNL     1       7.237  -4.204   0.000  0.00  0.00    +0.000 C 
ATOM     26  C   UNL     1       7.829  -3.862   0.000  0.00  0.00    +0.000 C 
ENDBRANCH  24  25
ENDBRANCH  23  24
ENDBRANCH  22  23
ENDBRANCH  21  22
ENDBRANCH  20  21
ENDBRANCH  17  20
ENDBRANCH  16  17
ENDBRANCH  15  16
ENDBRANCH  14  15
ENDBRANCH   1  14
TORSDOF 14
