
     RDKit          2D

 23 27  0  0  0  0  0  0  0  0999 V2000
    1.9863   -7.5202    0.0000 N   0  0  0  0  0  0  0  0  0  0  0  0
    2.3984   -6.9393    0.0000 C   0  0  0  0  0  0  0  0  0  0  0  0
    2.3370   -5.9862    0.0000 C   0  0  0  0  0  0  0  0  0  0  0  0
    2.8868   -5.5502    0.0000 C   0  0  0  0  0  0  0  0  0  0  0  0
    2.7556   -6.3538    0.0000 C   0  0  0  0  0  0  0  0  0  0  0  0
    2.8026   -7.3407    0.0000 C   0  0  0  0  0  0  0  0  0  0  0  0
    3.7053   -5.4465    0.0000 C   0  0  0  0  0  0  0  0  0  0  0  0
    3.8596   -4.6361    0.0000 C   0  0  0  0  0  0  0  0  0  0  0  0
    3.1365   -4.2389    0.0000 C   0  0  0  0  0  0  0  0  0  0  0  0
    2.5353   -4.8038    0.0000 C   0  0  0  0  0  0  0  0  0  0  0  0
    1.2911   -6.7888    0.0000 N   0  0  0  0  0  0  0  0  0  0  0  0
    1.7956   -6.3645    0.0000 C   0  0  0  0  0  0  0  0  0  0  0  0
    1.4180   -5.9869    0.0000 C   0  0  0  0  0  0  0  0  0  0  0  0
    0.8853   -7.5071    0.0000 C   0  0  0  0  0  0  0  0  0  0  0  0
    0.0603   -7.5148    0.0000 C   0  0  0  0  0  0  0  0  0  0  0  0
   -0.6502   -7.9340    0.0000 C   0  0  0  0  0  0  0  0  0  0  0  0
   -0.6580   -7.1090    0.0000 C   0  0  0  0  0  0  0  0  0  0  0  0
    3.3216   -5.7535    0.0000 H   0  0  0  0  0  0  0  0  0  0  0  0
    2.6611   -5.2275    0.0000 H   0  0  0  0  0  0  0  0  0  0  0  0
    1.2985   -7.9758    0.0000 C   0  0  0  0  0  0  0  0  0  0  0  0
    1.3493   -8.7993    0.0000 C   0  0  0  0  0  0  0  0  0  0  0  0
    1.8049   -9.4870    0.0000 C   0  0  0  0  0  0  0  0  0  0  0  0
    0.9815   -9.5377    0.0000 C   0  0  0  0  0  0  0  0  0  0  0  0
  1  2  1  0
  2  3  1  0
  3  4  1  0
  4  5  1  0
  5  6  1  0
  6  1  1  0
  4 10  1  0
  4  7  1  0
  7  8  1  0
  8  9  1  0
  9 10  1  0
  5 12  1  0
  3 13  1  0
 13 11  1  0
 11 12  1  0
 11 14  1  0
 14 15  1  0
 15 16  1  0
 17 15  1  0
 16 17  1  0
  5 18  1  1
  3 19  1  6
  1 20  1  0
 20 21  1  0
 21 22  1  0
 23 21  1  0
 22 23  1  0
M  END


> <chembl_id>
CHEMBL2111110

> <chembl_pref_name>
TEDISAMIL
