REMARK  Name = 
REMARK  1 active torsions:
REMARK  status: ('A' for Active; 'I' for Inactive)
REMARK    1  A    between atoms: S_2  and  C_4
REMARK                            x       y       z     vdW  Elec       q    Type
REMARK                         _______ _______ _______ _____ _____    ______ ____
ROOT
ATOM      1  S   UNL     1       2.604   0.721   0.000  0.00  0.00    +0.000 S 
ATOM      2  C   UNL     1       1.379   0.008   0.000  0.00  0.00    +0.000 A 
ATOM      3  C   UNL     1      -1.050   0.008   0.000  0.00  0.00    +0.000 A 
ATOM      4  C   UNL     1       0.167   0.721   0.000  0.00  0.00    +0.000 A 
ATOM      5  C   UNL     1       1.379  -1.417   0.000  0.00  0.00    +0.000 A 
ATOM      6  C   UNL     1      -1.050  -1.417   0.000  0.00  0.00    +0.000 A 
ATOM      7  C   UNL     1       0.167  -2.138   0.000  0.00  0.00    +0.000 A 
ATOM      8  O   UNL     1       3.467   1.771   0.000  0.00  0.00    +0.000 OA
ATOM      9  O   UNL     1       1.762   1.733   0.000  0.00  0.00    +0.000 OA
ATOM     10  C   UNL     1       3.862   0.008   0.000  0.00  0.00    +0.000 C 
ATOM     11  C   UNL     1       2.604  -2.138   0.000  0.00  0.00    +0.000 C 
ATOM     12  C   UNL     1      -2.625  -2.179   0.000  0.00  0.00    +0.000 C 
ATOM     13  C   UNL     1       3.862  -1.417   0.000  0.00  0.00    +0.000 C 
ENDROOT
BRANCH   3  14
ATOM     14  S   UNL     1      -2.271   0.721   0.000  0.00  0.00    +0.000 S 
ATOM     15  O   UNL     1      -2.921  -0.479   0.000  0.00  0.00    +0.000 OA
ATOM     16  O   UNL     1      -3.596   1.413   0.000  0.00  0.00    +0.000 OA
ATOM     17  N   UNL     1      -1.575   1.962   0.000  0.00  0.00    +0.000 NA
ENDBRANCH   3  14
TORSDOF 1
