REMARK  Name = 
REMARK  11 active torsions:
REMARK  status: ('A' for Active; 'I' for Inactive)
REMARK    1  A    between atoms: C_1  and  C_3
REMARK    2  A    between atoms: C_1  and  O_10
REMARK    3  A    between atoms: C_2  and  C_4
REMARK    4  A    between atoms: C_3  and  C_4
REMARK    5  A    between atoms: C_3  and  C_6
REMARK    6  A    between atoms: C_6  and  C_11
REMARK    7  A    between atoms: O_10  and  C_14
REMARK    8  A    between atoms: N_12  and  C_17
REMARK    9  A    between atoms: N_12  and  C_20
REMARK   10  A    between atoms: N_12  and  C_21
REMARK   11  A    between atoms: C_14  and  C_17
REMARK                            x       y       z     vdW  Elec       q    Type
REMARK                         _______ _______ _______ _____ _____    ______ ____
ROOT
ATOM      1  C   UNL     1      -1.800  -0.679   0.000  0.00  0.00    +0.000 C 
ENDROOT
BRANCH   1   2
ATOM      2  C   UNL     1      -1.808   0.046   0.000  0.00  0.00    +0.000 C 
ATOM      3  O   UNL     1      -2.433   0.371   0.000  0.00  0.00    +0.000 OA
BRANCH   2   4
ATOM      4  O   UNL     1      -1.196   0.383   0.000  0.00  0.00    +0.000 OA
BRANCH   4   5
ATOM      5  C   UNL     1      -1.196   1.108   0.000  0.00  0.00    +0.000 C 
BRANCH   5   6
ATOM      6  C   UNL     1      -0.583   1.462   0.000  0.00  0.00    +0.000 C 
BRANCH   6   7
ATOM      7  N   UNL     1      -0.583   2.188   0.000  0.00  0.00    +0.000 NA
BRANCH   7   8
ATOM      8  C   UNL     1       0.037   2.533   0.000  0.00  0.00    +0.000 C 
ATOM      9  C   UNL     1       0.050   3.258   0.000  0.00  0.00    +0.000 C 
ENDBRANCH   7   8
BRANCH   7  10
ATOM     10  C   UNL     1      -1.208   2.533   0.000  0.00  0.00    +0.000 C 
ATOM     11  C   UNL     1      -1.833   2.163   0.000  0.00  0.00    +0.000 C 
ENDBRANCH   7  10
ENDBRANCH   6   7
ENDBRANCH   5   6
ENDBRANCH   4   5
ENDBRANCH   2   4
ENDBRANCH   1   2
BRANCH   1  12
ATOM     12  C   UNL     1      -2.408  -1.050   0.000  0.00  0.00    +0.000 C 
BRANCH  12  13
ATOM     13  C   UNL     1      -2.408  -1.779   0.000  0.00  0.00    +0.000 A 
ATOM     14  C   UNL     1      -3.058  -2.150   0.000  0.00  0.00    +0.000 A 
ATOM     15  C   UNL     1      -3.058  -2.888   0.000  0.00  0.00    +0.000 A 
ATOM     16  C   UNL     1      -1.762  -2.150   0.000  0.00  0.00    +0.000 A 
ATOM     17  C   UNL     1      -1.762  -2.888   0.000  0.00  0.00    +0.000 A 
ATOM     18  C   UNL     1      -3.700  -1.779   0.000  0.00  0.00    +0.000 A 
ATOM     19  C   UNL     1      -2.408  -3.254   0.000  0.00  0.00    +0.000 A 
ATOM     20  C   UNL     1      -3.700  -3.254   0.000  0.00  0.00    +0.000 A 
ATOM     21  C   UNL     1      -4.346  -2.150   0.000  0.00  0.00    +0.000 A 
ATOM     22  C   UNL     1      -4.346  -2.888   0.000  0.00  0.00    +0.000 A 
ENDBRANCH  12  13
ENDBRANCH   1  12
BRANCH   1  23
ATOM     23  C   UNL     1      -1.171  -1.038   0.000  0.00  0.00    +0.000 C 
BRANCH  23  25
ATOM     24  O   UNL     1       0.138  -0.950   0.000  0.00  0.00    +0.000 OA
ATOM     25  C   UNL     1      -0.550  -0.667   0.000  0.00  0.00    +0.000 C 
ATOM     26  C   UNL     1       0.604  -0.392   0.000  0.00  0.00    +0.000 C 
ATOM     27  C   UNL     1      -0.496   0.046   0.000  0.00  0.00    +0.000 C 
ATOM     28  C   UNL     1       0.204   0.225   0.000  0.00  0.00    +0.000 C 
ENDBRANCH  23  25
ENDBRANCH   1  23
TORSDOF 11
