REMARK  Name = 
REMARK  5 active torsions:
REMARK  status: ('A' for Active; 'I' for Inactive)
REMARK    1  A    between atoms: NE_3  and  CD_4
REMARK    2  A    between atoms: CD_4  and  CG_5
REMARK    3  A    between atoms: CG_5  and  CB_6
REMARK    4  A    between atoms: CB_6  and  CA_7
REMARK    5  A    between atoms: CA_7  and  C_8
REMARK                            x       y       z     vdW  Elec       q    Type
REMARK                         _______ _______ _______ _____ _____    ______ ____
ROOT
ATOM      1  CG  ARG A   1     -11.658   3.089   0.000  0.00  0.00    +0.000 C 
ENDROOT
BRANCH   1   2
ATOM      2  CD  ARG A   1     -12.373   3.502   0.000  0.00  0.00    +0.000 C 
BRANCH   2   5
ATOM      3  NH1 ARG A   1     -14.516   3.089   0.000  0.00  0.00    +0.000 NA
ATOM      4  CZ  ARG A   1     -13.802   3.502   0.000  0.00  0.00    +0.000 C 
ATOM      5  NE  ARG A   1     -13.087   3.089   0.000  0.00  0.00    +0.000 NA
ATOM      6  NH2 ARG A   1     -13.802   4.327   0.000  0.00  0.00    +0.000 NA
ENDBRANCH   2   5
ENDBRANCH   1   2
BRANCH   1   7
ATOM      7  CB  ARG A   1     -10.944   3.502   0.000  0.00  0.00    +0.000 C 
BRANCH   7   8
ATOM      8  CA  ARG A   1     -10.229   3.089   0.000  0.00  0.00    +0.000 C 
ATOM      9  N   ARG A   1     -10.229   2.264   0.000  0.00  0.00    +0.000 NA
BRANCH   8  10
ATOM     10  C   ARG A   1      -9.515   3.502   0.000  0.00  0.00    +0.000 C 
ATOM     11  O   ARG A   1      -8.800   3.089   0.000  0.00  0.00    +0.000 OA
ATOM     12  OXT ARG A   1      -9.515   4.327   0.000  0.00  0.00    +0.000 OA
ENDBRANCH   8  10
ENDBRANCH   7   8
ENDBRANCH   1   7
TORSDOF 5
