REMARK  Name = 
REMARK  1 active torsions:
REMARK  status: ('A' for Active; 'I' for Inactive)
REMARK    1  A    between atoms: C_2  and  C_8
REMARK                            x       y       z     vdW  Elec       q    Type
REMARK                         _______ _______ _______ _____ _____    ______ ____
ROOT
ATOM      1  C   UNL     1      -2.021  -0.529   0.000  0.00  0.00    +0.000 A 
ATOM      2  C   UNL     1       0.037   0.658   0.000  0.00  0.00    +0.000 A 
ATOM      3  C   UNL     1      -2.708   0.658   0.000  0.00  0.00    +0.000 A 
ATOM      4  C   UNL     1      -0.646  -0.529   0.000  0.00  0.00    +0.000 A 
ATOM      5  N   UNL     1      -2.021   1.858   0.000  0.00  0.00    +0.000 NA
ATOM      6  C   UNL     1      -0.571   1.858   0.000  0.00  0.00    +0.000 A 
ATOM      7  O   UNL     1      -4.083   0.658   0.000  0.00  0.00    +0.000 OA
ATOM      8  N   UNL     1      -2.737  -1.729   0.000  0.00  0.00    +0.000 NA
ENDROOT
BRANCH   2   9
ATOM      9  C   UNL     1       1.442   0.658   0.000  0.00  0.00    +0.000 A 
ATOM     10  N   UNL     1       4.192   0.658   0.000  0.00  0.00    +0.000 NA
ATOM     11  C   UNL     1       3.504   1.858   0.000  0.00  0.00    +0.000 A 
ATOM     12  C   UNL     1       3.504  -0.529   0.000  0.00  0.00    +0.000 A 
ATOM     13  C   UNL     1       2.129   1.858   0.000  0.00  0.00    +0.000 A 
ATOM     14  C   UNL     1       2.129  -0.529   0.000  0.00  0.00    +0.000 A 
ENDBRANCH   2   9
TORSDOF 1
