
     RDKit          2D

 24 26  0  0  0  0  0  0  0  0999 V2000
    0.2167   -3.2625    0.0000 C   0  0  0  0  0  0  0  0  0  0  0  0
    0.8125   -2.1792    0.0000 C   0  0  0  0  0  0  0  0  0  0  0  0
    0.2042   -2.5500    0.0000 C   0  0  0  0  0  0  0  0  0  0  0  0
    0.4667   -4.3792    0.0000 S   0  0  0  0  0  0  0  0  0  0  0  0
    3.2667   -2.1500    0.0000 N   0  0  0  0  0  0  0  0  0  0  0  0
    0.7542   -3.7292    0.0000 C   0  0  0  0  0  0  0  0  0  0  0  0
   -0.3875   -3.6292    0.0000 C   0  0  0  0  0  0  0  0  0  0  0  0
   -0.2333   -4.3167    0.0000 C   0  0  0  0  0  0  0  0  0  0  0  0
    0.8042   -1.4667    0.0000 O   0  0  0  0  0  0  0  0  0  0  0  0
   -0.4208   -2.2000    0.0000 C   0  0  0  0  0  0  0  0  0  0  0  0
    1.4292   -2.5250    0.0000 O   0  0  0  0  0  0  0  0  0  0  0  0
    2.6500   -2.5042    0.0000 C   0  0  0  0  0  0  0  0  0  0  0  0
    2.0375   -2.1667    0.0000 C   0  0  0  0  0  0  0  0  0  0  0  0
    3.2625   -1.4417    0.0000 C   0  0  0  0  0  0  0  0  0  0  0  0
    3.8292   -2.5917    0.0000 C   0  0  0  0  0  0  0  0  0  0  0  0
   -1.0333   -2.5625    0.0000 C   0  0  0  0  0  0  0  0  0  0  0  0
   -0.4208   -1.4917    0.0000 C   0  0  0  0  0  0  0  0  0  0  0  0
    3.8167   -0.9917    0.0000 C   0  0  0  0  0  0  0  0  0  0  0  0
    4.5167   -2.4250    0.0000 C   0  0  0  0  0  0  0  0  0  0  0  0
   -1.6458   -2.2125    0.0000 C   0  0  0  0  0  0  0  0  0  0  0  0
   -1.0375   -1.1417    0.0000 C   0  0  0  0  0  0  0  0  0  0  0  0
    4.8167   -1.7792    0.0000 C   0  0  0  0  0  0  0  0  0  0  0  0
    4.5042   -1.1542    0.0000 C   0  0  0  0  0  0  0  0  0  0  0  0
   -1.6500   -1.5042    0.0000 C   0  0  0  0  0  0  0  0  0  0  0  0
  2  3  1  0
  3  1  1  0
  4  6  1  0
  5 12  1  0
  6  1  2  0
  7  1  1  0
  8  7  2  0
  9  2  2  0
 10  3  1  0
 11  2  1  0
 12 13  1  0
 13 11  1  0
 14  5  1  0
 15  5  1  0
 16 10  1  0
 17 10  1  0
 18 14  1  0
 19 15  1  0
 20 16  1  0
 21 17  1  0
 22 19  1  0
 23 18  1  0
 24 21  1  0
  8  4  1  0
 24 20  1  0
 22 23  1  0
M  END


> <chembl_id>
CHEMBL419380

> <chembl_pref_name>
CETIEDIL
