REMARK  Name = 
REMARK  11 active torsions:
REMARK  status: ('A' for Active; 'I' for Inactive)
REMARK    1  A    between atoms: C_2  and  C_10
REMARK    2  A    between atoms: C_3  and  C_11
REMARK    3  A    between atoms: C_4  and  C_9
REMARK    4  A    between atoms: N_8  and  C_12
REMARK    5  A    between atoms: C_10  and  O_19
REMARK    6  A    between atoms: C_11  and  O_21
REMARK    7  A    between atoms: N_18  and  C_20
REMARK    8  A    between atoms: N_18  and  C_29
REMARK    9  A    between atoms: O_19  and  C_26
REMARK   10  A    between atoms: C_20  and  C_25
REMARK   11  A    between atoms: C_26  and  C_29
REMARK                            x       y       z     vdW  Elec       q    Type
REMARK                         _______ _______ _______ _____ _____    ______ ____
ROOT
ATOM      1 CL   UNL     1       7.542  -7.042   0.000  0.00  0.00    +0.000 Cl
ENDROOT
TORSDOF 0
REMARK  Name = 
REMARK  11 active torsions:
REMARK  status: ('A' for Active; 'I' for Inactive)
REMARK    1  A    between atoms: C_2  and  C_10
REMARK    2  A    between atoms: C_3  and  C_11
REMARK    3  A    between atoms: C_4  and  C_9
REMARK    4  A    between atoms: N_8  and  C_12
REMARK    5  A    between atoms: C_10  and  O_19
REMARK    6  A    between atoms: C_11  and  O_21
REMARK    7  A    between atoms: N_18  and  C_20
REMARK    8  A    between atoms: N_18  and  C_29
REMARK    9  A    between atoms: O_19  and  C_26
REMARK   10  A    between atoms: C_20  and  C_25
REMARK   11  A    between atoms: C_26  and  C_29
REMARK                            x       y       z     vdW  Elec       q    Type
REMARK                         _______ _______ _______ _____ _____    ______ ____
ROOT
ATOM      1  C   UNL     1       3.817  -3.942   0.000  0.00  0.00    +0.000 C 
ATOM      2  C   UNL     1       2.587  -3.954   0.000  0.00  0.00    +0.000 C 
ATOM      3  C   UNL     1       3.204  -4.304   0.000  0.00  0.00    +0.000 C 
ATOM      4  C   UNL     1       3.817  -3.229   0.000  0.00  0.00    +0.000 C 
ATOM      5  C   UNL     1       2.587  -3.229   0.000  0.00  0.00    +0.000 C 
ATOM      6  N   UNL     1       3.204  -2.867   0.000  0.00  0.00    +0.000 NA
ATOM      7  C   UNL     1       1.950  -2.854   0.000  0.00  0.00    +0.000 C 
ATOM      8  C   UNL     1       4.438  -2.854   0.000  0.00  0.00    +0.000 C 
ENDROOT
BRANCH   3   9
ATOM      9  C   UNL     1       3.204  -5.013   0.000  0.00  0.00    +0.000 A 
ATOM     10  C   UNL     1       3.804  -6.075   0.000  0.00  0.00    +0.000 A 
ATOM     11  C   UNL     1       3.817  -5.354   0.000  0.00  0.00    +0.000 A 
ATOM     12  C   UNL     1       2.587  -5.362   0.000  0.00  0.00    +0.000 A 
ATOM     13  C   UNL     1       3.204  -6.438   0.000  0.00  0.00    +0.000 A 
ATOM     14  C   UNL     1       2.587  -6.075   0.000  0.00  0.00    +0.000 A 
BRANCH  10  15
ATOM     15  N   UNL     1       4.467  -6.442   0.000  0.00  0.00    +0.000 N 
ATOM     16  O   UNL     1       4.454  -7.167   0.000  0.00  0.00    +0.000 OA
ATOM     17  O   UNL     1       4.954  -6.167   0.000  0.00  0.00    +0.000 OA
ENDBRANCH  10  15
ENDBRANCH   3   9
BRANCH   1  18
ATOM     18  C   UNL     1       4.467  -4.304   0.000  0.00  0.00    +0.000 C 
ATOM     19  O   UNL     1       4.454  -5.013   0.000  0.00  0.00    +0.000 OA
BRANCH  18  20
ATOM     20  O   UNL     1       5.054  -3.929   0.000  0.00  0.00    +0.000 OA
BRANCH  20  21
ATOM     21  C   UNL     1       5.692  -4.267   0.000  0.00  0.00    +0.000 C 
BRANCH  21  22
ATOM     22  C   UNL     1       6.304  -3.900   0.000  0.00  0.00    +0.000 C 
BRANCH  22  23
ATOM     23  N   UNL     1       6.925  -4.237   0.000  0.00  0.00    +0.000 NA
ATOM     24  C   UNL     1       6.925  -4.938   0.000  0.00  0.00    +0.000 C 
BRANCH  23  25
ATOM     25  C   UNL     1       7.542  -3.854   0.000  0.00  0.00    +0.000 C 
BRANCH  25  26
ATOM     26  C   UNL     1       8.162  -4.188   0.000  0.00  0.00    +0.000 A 
ATOM     27  C   UNL     1       8.175  -4.904   0.000  0.00  0.00    +0.000 A 
ATOM     28  C   UNL     1       8.767  -3.825   0.000  0.00  0.00    +0.000 A 
ATOM     29  C   UNL     1       8.779  -5.254   0.000  0.00  0.00    +0.000 A 
ATOM     30  C   UNL     1       9.379  -4.162   0.000  0.00  0.00    +0.000 A 
ATOM     31  C   UNL     1       9.392  -4.867   0.000  0.00  0.00    +0.000 A 
ENDBRANCH  25  26
ENDBRANCH  23  25
ENDBRANCH  22  23
ENDBRANCH  21  22
ENDBRANCH  20  21
ENDBRANCH  18  20
ENDBRANCH   1  18
BRANCH   2  32
ATOM     32  C   UNL     1       1.979  -4.317   0.000  0.00  0.00    +0.000 C 
ATOM     33  O   UNL     1       1.967  -5.029   0.000  0.00  0.00    +0.000 OA
BRANCH  32  34
ATOM     34  O   UNL     1       1.363  -3.967   0.000  0.00  0.00    +0.000 OA
ATOM     35  C   UNL     1       0.754  -4.304   0.000  0.00  0.00    +0.000 C 
ENDBRANCH  32  34
ENDBRANCH   2  32
TORSDOF 11
