REMARK  Name = 
REMARK  3 active torsions:
REMARK  status: ('A' for Active; 'I' for Inactive)
REMARK    1  A    between atoms: C_1  and  N_2
REMARK    2  A    between atoms: C_1  and  C_3
REMARK    3  A    between atoms: C_3  and  C_4
REMARK                            x       y       z     vdW  Elec       q    Type
REMARK                         _______ _______ _______ _____ _____    ______ ____
ROOT
ATOM      1  C   UNL     1       4.054  -4.729   0.000  0.00  0.00    +0.000 C 
ENDROOT
BRANCH   1   2
ATOM      2  C   UNL     1       3.442  -5.088   0.000  0.00  0.00    +0.000 A 
ATOM      3  C   UNL     1       2.829  -4.733   0.000  0.00  0.00    +0.000 A 
ATOM      4  C   UNL     1       3.442  -5.800   0.000  0.00  0.00    +0.000 A 
ATOM      5  C   UNL     1       2.217  -5.088   0.000  0.00  0.00    +0.000 A 
ATOM      6  C   UNL     1       2.829  -6.154   0.000  0.00  0.00    +0.000 A 
ATOM      7  C   UNL     1       2.217  -5.800   0.000  0.00  0.00    +0.000 A 
ENDBRANCH   1   2
BRANCH   1   8
ATOM      8  C   UNL     1       4.667  -5.083   0.000  0.00  0.00    +0.000 C 
ATOM      9  C   UNL     1       4.304  -5.692   0.000  0.00  0.00    +0.000 C 
ATOM     10  C   UNL     1       5.017  -5.692   0.000  0.00  0.00    +0.000 C 
BRANCH   8  11
ATOM     11  N   UNL     1       5.279  -4.725   0.000  0.00  0.00    +0.000 NA
ATOM     12  C   UNL     1       5.896  -5.079   0.000  0.00  0.00    +0.000 C 
ENDBRANCH   8  11
ENDBRANCH   1   8
TORSDOF 3
