REMARK  Name = 
REMARK  2 active torsions:
REMARK  status: ('A' for Active; 'I' for Inactive)
REMARK    1  A    between atoms: N_7  and  C_11
REMARK    2  A    between atoms: C_8  and  C_11
REMARK                            x       y       z     vdW  Elec       q    Type
REMARK                         _______ _______ _______ _____ _____    ______ ____
ROOT
ATOM      1  O   UNL     1      -1.633  -1.867   0.000  0.00  0.00    +0.000 OA
ATOM      2  O   UNL     1      -1.633  -0.138   0.000  0.00  0.00    +0.000 OA
ATOM      3  C   UNL     1      -2.371  -1.429   0.000  0.00  0.00    +0.000 A 
ATOM      4  C   UNL     1      -2.371  -0.579   0.000  0.00  0.00    +0.000 A 
ATOM      5  C   UNL     1      -0.858  -1.429   0.000  0.00  0.00    +0.000 C 
ATOM      6  C   UNL     1      -0.858  -0.579   0.000  0.00  0.00    +0.000 C 
ATOM      7  C   UNL     1      -3.108  -1.867   0.000  0.00  0.00    +0.000 A 
ATOM      8  C   UNL     1      -3.108  -0.138   0.000  0.00  0.00    +0.000 A 
ATOM      9  C   UNL     1      -3.883  -1.429   0.000  0.00  0.00    +0.000 A 
ATOM     10  C   UNL     1      -3.883  -0.579   0.000  0.00  0.00    +0.000 A 
ENDROOT
BRANCH   5  11
ATOM     11  C   UNL     1      -0.083  -1.892   0.000  0.00  0.00    +0.000 C 
BRANCH  11  14
ATOM     12  C   UNL     1       1.438  -1.892   0.000  0.00  0.00    +0.000 C 
ATOM     13  N   UNL     1       1.438  -2.742   0.000  0.00  0.00    +0.000 NA
ATOM     14  N   UNL     1       0.675  -1.450   0.000  0.00  0.00    +0.000 NA
ATOM     15  N   UNL     1       2.163  -1.450   0.000  0.00  0.00    +0.000 NA
ENDBRANCH  11  14
ENDBRANCH   5  11
TORSDOF 2
