REMARK  Name = 
REMARK  4 active torsions:
REMARK  status: ('A' for Active; 'I' for Inactive)
REMARK    1  A    between atoms: C_2  and  C_34
REMARK    2  A    between atoms: C_8  and  O_23
REMARK    3  A    between atoms: C_11  and  C_13
REMARK    4  A    between atoms: O_23  and  C_24
REMARK                            x       y       z     vdW  Elec       q    Type
REMARK                         _______ _______ _______ _____ _____    ______ ____
ROOT
ATOM      1  O   HOH     1       0.138  -1.767   0.000  0.00  0.00    +0.000 OA
ENDROOT
TORSDOF 0
REMARK  Name = 
REMARK  4 active torsions:
REMARK  status: ('A' for Active; 'I' for Inactive)
REMARK    1  A    between atoms: C_2  and  C_34
REMARK    2  A    between atoms: C_8  and  O_23
REMARK    3  A    between atoms: C_11  and  C_13
REMARK    4  A    between atoms: O_23  and  C_24
REMARK                            x       y       z     vdW  Elec       q    Type
REMARK                         _______ _______ _______ _____ _____    ______ ____
ROOT
ATOM      1  C   UNL     1      -0.388   0.546   0.000  0.00  0.00    +0.000 C 
ATOM      2  C   UNL     1       1.538   0.562   0.000  0.00  0.00    +0.000 C 
ATOM      3  C   UNL     1       1.212   0.000   0.000  0.00  0.00    +0.000 C 
ATOM      4  C   UNL     1       0.229   0.533   0.000  0.00  0.00    +0.000 C 
ATOM      5  C   UNL     1      -0.721  -0.017   0.000  0.00  0.00    +0.000 C 
ATOM      6  C   UNL     1       0.554  -0.004   0.000  0.00  0.00    +0.000 C 
ATOM      7  C   UNL     1       2.179   0.421   0.000  0.00  0.00    +0.000 C 
ATOM      8  C   UNL     1      -0.725   1.075   0.000  0.00  0.00    +0.000 C 
ATOM      9  C   UNL     1       0.537   1.113   0.000  0.00  0.00    +0.000 C 
ATOM     10  C   UNL     1       1.212   1.113   0.000  0.00  0.00    +0.000 C 
ATOM     11  C   UNL     1      -1.363  -0.029   0.000  0.00  0.00    +0.000 C 
ATOM     12  C   UNL     1       1.667  -0.479   0.000  0.00  0.00    +0.000 C 
ATOM     13  C   UNL     1      -1.700   0.521   0.000  0.00  0.00    +0.000 C 
ATOM     14  C   UNL     1      -1.396   1.096   0.000  0.00  0.00    +0.000 C 
ATOM     15  C   UNL     1       0.237  -0.579   0.000  0.00  0.00    +0.000 C 
ATOM     16  C   UNL     1       2.254  -0.212   0.000  0.00  0.00    +0.000 C 
ATOM     17  C   UNL     1      -0.400  -0.579   0.000  0.00  0.00    +0.000 C 
ATOM     18  O   UNL     1       0.950  -0.600   0.000  0.00  0.00    +0.000 OA
ATOM     19  O   UNL     1      -1.046  -0.592   0.000  0.00  0.00    +0.000 OA
ATOM     20  C   UNL     1       1.917   1.096   0.000  0.00  0.00    +0.000 C 
ATOM     21  O   UNL     1      -0.408   1.658   0.000  0.00  0.00    +0.000 OA
ATOM     22  O   UNL     1       0.217   1.675   0.000  0.00  0.00    +0.000 OA
ENDROOT
BRANCH   7  23
ATOM     23  C   UNL     1       2.667   0.850   0.000  0.00  0.00    +0.000 C 
ATOM     24  C   UNL     1       3.329   0.721   0.000  0.00  0.00    +0.000 C 
ATOM     25  C   UNL     1       3.654   1.300   0.000  0.00  0.00    +0.000 C 
ATOM     26  O   UNL     1       3.188   1.783   0.000  0.00  0.00    +0.000 OA
ATOM     27  C   UNL     1       2.600   1.508   0.000  0.00  0.00    +0.000 C 
ATOM     28  O   UNL     1       4.292   1.363   0.000  0.00  0.00    +0.000 OA
ENDBRANCH   7  23
BRANCH   1  29
ATOM     29  C   UNL     1      -0.096   1.108   0.000  0.00  0.00    +0.000 C 
ATOM     30  O   UNL     1      -0.113   1.771   0.000  0.00  0.00    +0.000 OA
ENDBRANCH   1  29
BRANCH  13  31
ATOM     31  O   UNL     1      -2.346   0.521   0.000  0.00  0.00    +0.000 OA
BRANCH  31  32
ATOM     32  C   UNL     1      -2.708  -0.029   0.000  0.00  0.00    +0.000 C 
ATOM     33  C   UNL     1      -2.375  -0.592   0.000  0.00  0.00    +0.000 C 
ATOM     34  C   UNL     1      -2.721  -1.142   0.000  0.00  0.00    +0.000 C 
ATOM     35  O   UNL     1      -3.325   0.008   0.000  0.00  0.00    +0.000 OA
ATOM     36  C   UNL     1      -3.362  -1.129   0.000  0.00  0.00    +0.000 C 
ATOM     37  C   UNL     1      -3.675  -0.554   0.000  0.00  0.00    +0.000 C 
ATOM     38  O   UNL     1      -1.725  -0.613   0.000  0.00  0.00    +0.000 OA
ATOM     39  O   UNL     1      -2.400  -1.738   0.000  0.00  0.00    +0.000 OA
ATOM     40  O   UNL     1      -3.700  -1.679   0.000  0.00  0.00    +0.000 OA
ATOM     41  C   UNL     1      -4.346  -0.537   0.000  0.00  0.00    +0.000 C 
ENDBRANCH  31  32
ENDBRANCH  13  31
TORSDOF 4
REMARK  Name = 
REMARK  4 active torsions:
REMARK  status: ('A' for Active; 'I' for Inactive)
REMARK    1  A    between atoms: C_2  and  C_34
REMARK    2  A    between atoms: C_8  and  O_23
REMARK    3  A    between atoms: C_11  and  C_13
REMARK    4  A    between atoms: O_23  and  C_24
REMARK                            x       y       z     vdW  Elec       q    Type
REMARK                         _______ _______ _______ _____ _____    ______ ____
ROOT
ATOM      1  O   HOH     1       4.167  -0.487   0.000  0.00  0.00    +0.000 OA
ENDROOT
TORSDOF 0
REMARK  Name = 
REMARK  4 active torsions:
REMARK  status: ('A' for Active; 'I' for Inactive)
REMARK    1  A    between atoms: C_2  and  C_34
REMARK    2  A    between atoms: C_8  and  O_23
REMARK    3  A    between atoms: C_11  and  C_13
REMARK    4  A    between atoms: O_23  and  C_24
REMARK                            x       y       z     vdW  Elec       q    Type
REMARK                         _______ _______ _______ _____ _____    ______ ____
ROOT
ATOM      1  O   HOH     1       2.479  -1.604   0.000  0.00  0.00    +0.000 OA
ENDROOT
TORSDOF 0
REMARK  Name = 
REMARK  4 active torsions:
REMARK  status: ('A' for Active; 'I' for Inactive)
REMARK    1  A    between atoms: C_2  and  C_34
REMARK    2  A    between atoms: C_8  and  O_23
REMARK    3  A    between atoms: C_11  and  C_13
REMARK    4  A    between atoms: O_23  and  C_24
REMARK                            x       y       z     vdW  Elec       q    Type
REMARK                         _______ _______ _______ _____ _____    ______ ____
ROOT
ATOM      1  O   HOH     1       1.954   2.721   0.000  0.00  0.00    +0.000 OA
ENDROOT
TORSDOF 0
REMARK  Name = 
REMARK  4 active torsions:
REMARK  status: ('A' for Active; 'I' for Inactive)
REMARK    1  A    between atoms: C_2  and  C_34
REMARK    2  A    between atoms: C_8  and  O_23
REMARK    3  A    between atoms: C_11  and  C_13
REMARK    4  A    between atoms: O_23  and  C_24
REMARK                            x       y       z     vdW  Elec       q    Type
REMARK                         _______ _______ _______ _____ _____    ______ ____
ROOT
ATOM      1  O   HOH     1      -0.062   2.812   0.000  0.00  0.00    +0.000 OA
ENDROOT
TORSDOF 0
REMARK  Name = 
REMARK  4 active torsions:
REMARK  status: ('A' for Active; 'I' for Inactive)
REMARK    1  A    between atoms: C_2  and  C_34
REMARK    2  A    between atoms: C_8  and  O_23
REMARK    3  A    between atoms: C_11  and  C_13
REMARK    4  A    between atoms: O_23  and  C_24
REMARK                            x       y       z     vdW  Elec       q    Type
REMARK                         _______ _______ _______ _____ _____    ______ ____
ROOT
ATOM      1  O   HOH     1      -1.983   2.058   0.000  0.00  0.00    +0.000 OA
ENDROOT
TORSDOF 0
REMARK  Name = 
REMARK  4 active torsions:
REMARK  status: ('A' for Active; 'I' for Inactive)
REMARK    1  A    between atoms: C_2  and  C_34
REMARK    2  A    between atoms: C_8  and  O_23
REMARK    3  A    between atoms: C_11  and  C_13
REMARK    4  A    between atoms: O_23  and  C_24
REMARK                            x       y       z     vdW  Elec       q    Type
REMARK                         _______ _______ _______ _____ _____    ______ ____
ROOT
ATOM      1  O   HOH     1      -3.483   1.096   0.000  0.00  0.00    +0.000 OA
ENDROOT
TORSDOF 0
REMARK  Name = 
REMARK  4 active torsions:
REMARK  status: ('A' for Active; 'I' for Inactive)
REMARK    1  A    between atoms: C_2  and  C_34
REMARK    2  A    between atoms: C_8  and  O_23
REMARK    3  A    between atoms: C_11  and  C_13
REMARK    4  A    between atoms: O_23  and  C_24
REMARK                            x       y       z     vdW  Elec       q    Type
REMARK                         _______ _______ _______ _____ _____    ______ ____
ROOT
ATOM      1  O   HOH     1      -1.921  -2.679   0.000  0.00  0.00    +0.000 OA
ENDROOT
TORSDOF 0
