MODEL 1
REMARK VINA RESULT:     -10.5      0.000      0.000
REMARK  Name = 
REMARK  7 active torsions:
REMARK  status: ('A' for Active; 'I' for Inactive)
REMARK    1  A    between atoms: C_1  and  C_2
REMARK    2  A    between atoms: C_1  and  O_4
REMARK    3  A    between atoms: C_2  and  C_5
REMARK    4  A    between atoms: N_3  and  C_7
REMARK    5  A    between atoms: O_4  and  C_10
REMARK    6  A    between atoms: C_6  and  C_7
REMARK    7  A    between atoms: C_6  and  C_10
REMARK                            x       y       z     vdW  Elec       q    Type
REMARK                         _______ _______ _______ _____ _____    ______ ____
ROOT
ATOM      1  C   UNL     1     145.175 108.237 194.582  0.00  0.00    +0.000 C 
ATOM      2  C   UNL     1     144.575 108.333 194.944  0.00  0.00    +0.000 C 
ATOM      3  C   UNL     1     145.256 107.886 193.978  0.00  0.00    +0.000 C 
ATOM      4  C   UNL     1     144.778 107.548 193.587  0.00  0.00    +0.000 C 
ATOM      5  C   UNL     1     143.924 108.113 194.806  0.00  0.00    +0.000 C 
ATOM      6  C   UNL     1     144.094 107.475 193.701  0.00  0.00    +0.000 C 
ATOM      7  C   UNL     1     143.717 107.730 194.248  0.00  0.00    +0.000 C 
ENDROOT
BRANCH   1   8
ATOM      8  C   UNL     1     145.722 108.541 194.894  0.00  0.00    +0.000 C 
BRANCH   8   9
ATOM      9  C   UNL     1     145.635 108.927 195.477  0.00  0.00    +0.000 A 
ATOM     10  C   UNL     1     145.474 109.615 195.432  0.00  0.00    +0.000 A 
ATOM     11  C   UNL     1     145.710 108.623 196.111  0.00  0.00    +0.000 A 
ATOM     12  C   UNL     1     145.626 108.995 196.704  0.00  0.00    +0.000 A 
ATOM     13  C   UNL     1     145.388 109.995 196.026  0.00  0.00    +0.000 A 
ATOM     14  C   UNL     1     145.464 109.688 196.652  0.00  0.00    +0.000 A 
ENDBRANCH   8   9
ENDBRANCH   1   8
BRANCH   1  15
ATOM     15  O   UNL     1     145.962 108.232 194.304  0.00  0.00    +0.000 OA
BRANCH  15  16
ATOM     16  C   UNL     1     146.495 108.379 193.911  0.00  0.00    +0.000 C 
BRANCH  16  17
ATOM     17  C   UNL     1     147.065 107.953 193.943  0.00  0.00    +0.000 C 
BRANCH  17  18
ATOM     18  C   UNL     1     147.614 108.058 193.509  0.00  0.00    +0.000 C 
BRANCH  18  19
ATOM     19  N   UNL     1     148.224 107.699 193.596  0.00  0.00    +0.000 NA
ATOM     20  C   UNL     1     148.295 107.078 193.297  0.00  0.00    +0.000 C 
ATOM     21  C   UNL     1     148.731 107.980 193.979  0.00  0.00    +0.000 C 
ENDBRANCH  18  19
ENDBRANCH  17  18
ENDBRANCH  16  17
ENDBRANCH  15  16
ENDBRANCH   1  15
TORSDOF 7
ENDMDL
MODEL 2
REMARK VINA RESULT:      -9.8     59.558     60.539
REMARK  Name = 
REMARK  7 active torsions:
REMARK  status: ('A' for Active; 'I' for Inactive)
REMARK    1  A    between atoms: C_1  and  C_2
REMARK    2  A    between atoms: C_1  and  O_4
REMARK    3  A    between atoms: C_2  and  C_5
REMARK    4  A    between atoms: N_3  and  C_7
REMARK    5  A    between atoms: O_4  and  C_10
REMARK    6  A    between atoms: C_6  and  C_7
REMARK    7  A    between atoms: C_6  and  C_10
REMARK                            x       y       z     vdW  Elec       q    Type
REMARK                         _______ _______ _______ _____ _____    ______ ____
ROOT
ATOM      1  C   UNL     1     109.407 143.309 162.633  0.00  0.00    +0.000 C 
ATOM      2  C   UNL     1     109.584 143.107 163.287  0.00  0.00    +0.000 C 
ATOM      3  C   UNL     1     109.645 143.043 162.025  0.00  0.00    +0.000 C 
ATOM      4  C   UNL     1     110.108 142.525 161.914  0.00  0.00    +0.000 C 
ATOM      5  C   UNL     1     110.028 142.608 163.501  0.00  0.00    +0.000 C 
ATOM      6  C   UNL     1     110.451 142.138 162.381  0.00  0.00    +0.000 C 
ATOM      7  C   UNL     1     110.412 142.179 163.090  0.00  0.00    +0.000 C 
ENDROOT
BRANCH   1   8
ATOM      8  C   UNL     1     108.942 143.831 162.635  0.00  0.00    +0.000 C 
BRANCH   8   9
ATOM      9  C   UNL     1     108.665 144.064 163.239  0.00  0.00    +0.000 A 
ATOM     10  C   UNL     1     108.082 143.766 163.506  0.00  0.00    +0.000 A 
ATOM     11  C   UNL     1     108.976 144.599 163.581  0.00  0.00    +0.000 A 
ATOM     12  C   UNL     1     108.713 144.844 164.187  0.00  0.00    +0.000 A 
ATOM     13  C   UNL     1     107.811 144.008 164.116  0.00  0.00    +0.000 A 
ATOM     14  C   UNL     1     108.123 144.540 164.451  0.00  0.00    +0.000 A 
ENDBRANCH   8   9
ENDBRANCH   1   8
BRANCH   1  15
ATOM     15  O   UNL     1     109.081 143.677 161.957  0.00  0.00    +0.000 OA
BRANCH  15  16
ATOM     16  C   UNL     1     109.019 144.117 161.445  0.00  0.00    +0.000 C 
BRANCH  16  17
ATOM     17  C   UNL     1     108.564 143.961 160.920  0.00  0.00    +0.000 C 
BRANCH  17  18
ATOM     18  C   UNL     1     108.473 144.409 160.381  0.00  0.00    +0.000 C 
BRANCH  18  19
ATOM     19  N   UNL     1     107.992 144.278 159.871  0.00  0.00    +0.000 NA
ATOM     20  C   UNL     1     107.321 144.390 160.005  0.00  0.00    +0.000 C 
ATOM     21  C   UNL     1     108.207 144.041 159.254  0.00  0.00    +0.000 C 
ENDBRANCH  18  19
ENDBRANCH  17  18
ENDBRANCH  16  17
ENDBRANCH  15  16
ENDBRANCH   1  15
TORSDOF 7
ENDMDL
MODEL 3
REMARK VINA RESULT:      -9.7      0.734      2.253
REMARK  Name = 
REMARK  7 active torsions:
REMARK  status: ('A' for Active; 'I' for Inactive)
REMARK    1  A    between atoms: C_1  and  C_2
REMARK    2  A    between atoms: C_1  and  O_4
REMARK    3  A    between atoms: C_2  and  C_5
REMARK    4  A    between atoms: N_3  and  C_7
REMARK    5  A    between atoms: O_4  and  C_10
REMARK    6  A    between atoms: C_6  and  C_7
REMARK    7  A    between atoms: C_6  and  C_10
REMARK                            x       y       z     vdW  Elec       q    Type
REMARK                         _______ _______ _______ _____ _____    ______ ____
ROOT
ATOM      1  C   UNL     1     145.941 108.459 194.977  0.00  0.00    +0.000 C 
ATOM      2  C   UNL     1     145.276 108.503 195.213  0.00  0.00    +0.000 C 
ATOM      3  C   UNL     1     146.531 108.608 195.332  0.00  0.00    +0.000 C 
ATOM      4  C   UNL     1     146.610 108.833 195.994  0.00  0.00    +0.000 C 
ATOM      5  C   UNL     1     145.032 108.700 195.840  0.00  0.00    +0.000 C 
ATOM      6  C   UNL     1     146.120 108.967 196.472  0.00  0.00    +0.000 C 
ATOM      7  C   UNL     1     145.415 108.906 196.398  0.00  0.00    +0.000 C 
ENDROOT
BRANCH   1   8
ATOM      8  C   UNL     1     145.971 108.238 194.314  0.00  0.00    +0.000 C 
BRANCH   8   9
ATOM      9  C   UNL     1     145.381 108.124 193.946  0.00  0.00    +0.000 A 
ATOM     10  C   UNL     1     145.045 107.503 193.990  0.00  0.00    +0.000 A 
ATOM     11  C   UNL     1     145.125 108.636 193.530  0.00  0.00    +0.000 A 
ATOM     12  C   UNL     1     144.536 108.538 193.155  0.00  0.00    +0.000 A 
ATOM     13  C   UNL     1     144.451 107.398 193.615  0.00  0.00    +0.000 A 
ATOM     14  C   UNL     1     144.202 107.909 193.204  0.00  0.00    +0.000 A 
ENDBRANCH   8   9
ENDBRANCH   1   8
BRANCH   1  15
ATOM     15  O   UNL     1     146.638 108.345 194.530  0.00  0.00    +0.000 OA
BRANCH  15  16
ATOM     16  C   UNL     1     147.213 108.499 194.206  0.00  0.00    +0.000 C 
BRANCH  16  17
ATOM     17  C   UNL     1     147.670 107.971 194.062  0.00  0.00    +0.000 C 
BRANCH  17  18
ATOM     18  C   UNL     1     148.301 108.113 193.775  0.00  0.00    +0.000 C 
BRANCH  18  19
ATOM     19  N   UNL     1     148.718 107.590 193.529  0.00  0.00    +0.000 NA
ATOM     20  C   UNL     1     148.712 107.447 192.851  0.00  0.00    +0.000 C 
ATOM     21  C   UNL     1     149.119 107.239 193.973  0.00  0.00    +0.000 C 
ENDBRANCH  18  19
ENDBRANCH  17  18
ENDBRANCH  16  17
ENDBRANCH  15  16
ENDBRANCH   1  15
TORSDOF 7
ENDMDL
MODEL 4
REMARK VINA RESULT:      -9.5      1.306      3.325
REMARK  Name = 
REMARK  7 active torsions:
REMARK  status: ('A' for Active; 'I' for Inactive)
REMARK    1  A    between atoms: C_1  and  C_2
REMARK    2  A    between atoms: C_1  and  O_4
REMARK    3  A    between atoms: C_2  and  C_5
REMARK    4  A    between atoms: N_3  and  C_7
REMARK    5  A    between atoms: O_4  and  C_10
REMARK    6  A    between atoms: C_6  and  C_7
REMARK    7  A    between atoms: C_6  and  C_10
REMARK                            x       y       z     vdW  Elec       q    Type
REMARK                         _______ _______ _______ _____ _____    ______ ____
ROOT
ATOM      1  C   UNL     1     146.534 108.428 194.104  0.00  0.00    +0.000 C 
ATOM      2  C   UNL     1     146.548 107.896 193.639  0.00  0.00    +0.000 C 
ATOM      3  C   UNL     1     147.077 108.692 194.466  0.00  0.00    +0.000 C 
ATOM      4  C   UNL     1     147.754 108.502 194.461  0.00  0.00    +0.000 C 
ATOM      5  C   UNL     1     147.085 107.501 193.420  0.00  0.00    +0.000 C 
ATOM      6  C   UNL     1     148.063 107.998 194.091  0.00  0.00    +0.000 C 
ATOM      7  C   UNL     1     147.759 107.553 193.626  0.00  0.00    +0.000 C 
ENDROOT
BRANCH   1   8
ATOM      8  C   UNL     1     145.891 108.692 194.183  0.00  0.00    +0.000 C 
BRANCH   8   9
ATOM      9  C   UNL     1     145.338 108.392 193.866  0.00  0.00    +0.000 A 
ATOM     10  C   UNL     1     144.981 107.871 194.184  0.00  0.00    +0.000 A 
ATOM     11  C   UNL     1     145.140 108.616 193.225  0.00  0.00    +0.000 A 
ATOM     12  C   UNL     1     144.588 108.326 192.895  0.00  0.00    +0.000 A 
ATOM     13  C   UNL     1     144.425 107.575 193.857  0.00  0.00    +0.000 A 
ATOM     14  C   UNL     1     144.232 107.801 193.221  0.00  0.00    +0.000 A 
ENDBRANCH   8   9
ENDBRANCH   1   8
BRANCH   1  15
ATOM     15  O   UNL     1     146.322 109.059 194.609  0.00  0.00    +0.000 OA
BRANCH  15  16
ATOM     16  C   UNL     1     146.282 109.693 194.846  0.00  0.00    +0.000 C 
BRANCH  16  17
ATOM     17  C   UNL     1     146.068 109.789 195.518  0.00  0.00    +0.000 C 
BRANCH  17  18
ATOM     18  C   UNL     1     146.105 110.429 195.818  0.00  0.00    +0.000 C 
BRANCH  18  19
ATOM     19  N   UNL     1     145.748 110.574 196.418  0.00  0.00    +0.000 NA
ATOM     20  C   UNL     1     145.933 110.256 197.005  0.00  0.00    +0.000 C 
ATOM     21  C   UNL     1     145.225 111.031 196.398  0.00  0.00    +0.000 C 
ENDBRANCH  18  19
ENDBRANCH  17  18
ENDBRANCH  16  17
ENDBRANCH  15  16
ENDBRANCH   1  15
TORSDOF 7
ENDMDL
MODEL 5
REMARK VINA RESULT:      -9.4      1.146      2.855
REMARK  Name = 
REMARK  7 active torsions:
REMARK  status: ('A' for Active; 'I' for Inactive)
REMARK    1  A    between atoms: C_1  and  C_2
REMARK    2  A    between atoms: C_1  and  O_4
REMARK    3  A    between atoms: C_2  and  C_5
REMARK    4  A    between atoms: N_3  and  C_7
REMARK    5  A    between atoms: O_4  and  C_10
REMARK    6  A    between atoms: C_6  and  C_7
REMARK    7  A    between atoms: C_6  and  C_10
REMARK                            x       y       z     vdW  Elec       q    Type
REMARK                         _______ _______ _______ _____ _____    ______ ____
ROOT
ATOM      1  C   UNL     1     145.181 108.107 194.330  0.00  0.00    +0.000 C 
ATOM      2  C   UNL     1     145.125 107.799 193.695  0.00  0.00    +0.000 C 
ATOM      3  C   UNL     1     144.671 108.191 194.809  0.00  0.00    +0.000 C 
ATOM      4  C   UNL     1     143.995 107.997 194.782  0.00  0.00    +0.000 C 
ATOM      5  C   UNL     1     144.571 107.506 193.382  0.00  0.00    +0.000 C 
ATOM      6  C   UNL     1     143.654 107.669 194.270  0.00  0.00    +0.000 C 
ATOM      7  C   UNL     1     143.917 107.452 193.645  0.00  0.00    +0.000 C 
ENDROOT
BRANCH   1   8
ATOM      8  C   UNL     1     145.828 108.339 194.455  0.00  0.00    +0.000 C 
BRANCH   8   9
ATOM      9  C   UNL     1     146.339 108.254 193.978  0.00  0.00    +0.000 A 
ATOM     10  C   UNL     1     146.739 107.671 193.978  0.00  0.00    +0.000 A 
ATOM     11  C   UNL     1     146.451 108.758 193.494  0.00  0.00    +0.000 A 
ATOM     12  C   UNL     1     146.958 108.689 193.009  0.00  0.00    +0.000 A 
ATOM     13  C   UNL     1     147.251 107.595 193.493  0.00  0.00    +0.000 A 
ATOM     14  C   UNL     1     147.358 108.098 193.015  0.00  0.00    +0.000 A 
ENDBRANCH   8   9
ENDBRANCH   1   8
BRANCH   1  15
ATOM     15  O   UNL     1     145.436 108.495 195.024  0.00  0.00    +0.000 OA
BRANCH  15  16
ATOM     16  C   UNL     1     145.477 108.976 195.501  0.00  0.00    +0.000 C 
BRANCH  16  17
ATOM     17  C   UNL     1     145.768 108.803 196.128  0.00  0.00    +0.000 C 
BRANCH  17  18
ATOM     18  C   UNL     1     145.728 109.250 196.675  0.00  0.00    +0.000 C 
BRANCH  18  19
ATOM     19  N   UNL     1     146.172 109.190 197.231  0.00  0.00    +0.000 NA
ATOM     20  C   UNL     1     146.772 109.536 197.220  0.00  0.00    +0.000 C 
ATOM     21  C   UNL     1     145.991 108.789 197.767  0.00  0.00    +0.000 C 
ENDBRANCH  18  19
ENDBRANCH  17  18
ENDBRANCH  16  17
ENDBRANCH  15  16
ENDBRANCH   1  15
TORSDOF 7
ENDMDL
MODEL 6
REMARK VINA RESULT:      -9.0      1.329      2.765
REMARK  Name = 
REMARK  7 active torsions:
REMARK  status: ('A' for Active; 'I' for Inactive)
REMARK    1  A    between atoms: C_1  and  C_2
REMARK    2  A    between atoms: C_1  and  O_4
REMARK    3  A    between atoms: C_2  and  C_5
REMARK    4  A    between atoms: N_3  and  C_7
REMARK    5  A    between atoms: O_4  and  C_10
REMARK    6  A    between atoms: C_6  and  C_7
REMARK    7  A    between atoms: C_6  and  C_10
REMARK                            x       y       z     vdW  Elec       q    Type
REMARK                         _______ _______ _______ _____ _____    ______ ____
ROOT
ATOM      1  C   UNL     1     146.647 109.074 195.353  0.00  0.00    +0.000 C 
ATOM      2  C   UNL     1     147.050 109.378 195.848  0.00  0.00    +0.000 C 
ATOM      3  C   UNL     1     146.841 108.582 194.888  0.00  0.00    +0.000 C 
ATOM      4  C   UNL     1     147.467 108.274 194.797  0.00  0.00    +0.000 C 
ATOM      5  C   UNL     1     147.726 109.278 196.004  0.00  0.00    +0.000 C 
ATOM      6  C   UNL     1     148.061 108.378 195.147  0.00  0.00    +0.000 C 
ATOM      7  C   UNL     1     148.172 108.829 195.687  0.00  0.00    +0.000 C 
ENDROOT
BRANCH   1   8
ATOM      8  C   UNL     1     145.991 109.317 195.361  0.00  0.00    +0.000 C 
BRANCH   8   9
ATOM      9  C   UNL     1     145.803 109.828 195.807  0.00  0.00    +0.000 A 
ATOM     10  C   UNL     1     145.877 110.508 195.627  0.00  0.00    +0.000 A 
ATOM     11  C   UNL     1     145.538 109.658 196.441  0.00  0.00    +0.000 A 
ATOM     12  C   UNL     1     145.345 110.158 196.899  0.00  0.00    +0.000 A 
ATOM     13  C   UNL     1     145.684 111.016 196.084  0.00  0.00    +0.000 A 
ATOM     14  C   UNL     1     145.422 110.842 196.711  0.00  0.00    +0.000 A 
ENDBRANCH   8   9
ENDBRANCH   1   8
BRANCH   1  15
ATOM     15  O   UNL     1     146.029 108.834 194.844  0.00  0.00    +0.000 OA
BRANCH  15  16
ATOM     16  C   UNL     1     145.661 108.783 194.277  0.00  0.00    +0.000 C 
BRANCH  16  17
ATOM     17  C   UNL     1     145.212 108.233 194.216  0.00  0.00    +0.000 C 
BRANCH  17  18
ATOM     18  C   UNL     1     144.785 108.182 193.654  0.00  0.00    +0.000 C 
BRANCH  18  19
ATOM     19  N   UNL     1     144.340 107.629 193.581  0.00  0.00    +0.000 NA
ATOM     20  C   UNL     1     143.722 107.652 193.892  0.00  0.00    +0.000 C 
ATOM     21  C   UNL     1     144.538 107.083 193.200  0.00  0.00    +0.000 C 
ENDBRANCH  18  19
ENDBRANCH  17  18
ENDBRANCH  16  17
ENDBRANCH  15  16
ENDBRANCH   1  15
TORSDOF 7
ENDMDL
MODEL 7
REMARK VINA RESULT:      -9.0      1.524      3.122
REMARK  Name = 
REMARK  7 active torsions:
REMARK  status: ('A' for Active; 'I' for Inactive)
REMARK    1  A    between atoms: C_1  and  C_2
REMARK    2  A    between atoms: C_1  and  O_4
REMARK    3  A    between atoms: C_2  and  C_5
REMARK    4  A    between atoms: N_3  and  C_7
REMARK    5  A    between atoms: O_4  and  C_10
REMARK    6  A    between atoms: C_6  and  C_7
REMARK    7  A    between atoms: C_6  and  C_10
REMARK                            x       y       z     vdW  Elec       q    Type
REMARK                         _______ _______ _______ _____ _____    ______ ____
ROOT
ATOM      1  C   UNL     1     145.699 109.580 196.034  0.00  0.00    +0.000 C 
ATOM      2  C   UNL     1     146.145 110.002 196.385  0.00  0.00    +0.000 C 
ATOM      3  C   UNL     1     145.004 109.665 195.958  0.00  0.00    +0.000 C 
ATOM      4  C   UNL     1     144.585 110.174 196.202  0.00  0.00    +0.000 C 
ATOM      5  C   UNL     1     146.023 110.595 196.738  0.00  0.00    +0.000 C 
ATOM      6  C   UNL     1     144.753 110.731 196.587  0.00  0.00    +0.000 C 
ATOM      7  C   UNL     1     145.398 110.915 196.824  0.00  0.00    +0.000 C 
ENDROOT
BRANCH   1   8
ATOM      8  C   UNL     1     146.025 109.032 195.747  0.00  0.00    +0.000 C 
BRANCH   8   9
ATOM      9  C   UNL     1     146.725 108.966 195.792  0.00  0.00    +0.000 A 
ATOM     10  C   UNL     1     147.023 108.672 196.362  0.00  0.00    +0.000 A 
ATOM     11  C   UNL     1     147.131 109.197 195.261  0.00  0.00    +0.000 A 
ATOM     12  C   UNL     1     147.833 109.138 195.289  0.00  0.00    +0.000 A 
ATOM     13  C   UNL     1     147.729 108.610 196.397  0.00  0.00    +0.000 A 
ATOM     14  C   UNL     1     148.127 108.841 195.867  0.00  0.00    +0.000 A 
ENDBRANCH   8   9
ENDBRANCH   1   8
BRANCH   1  15
ATOM     15  O   UNL     1     145.338 108.977 195.584  0.00  0.00    +0.000 OA
BRANCH  15  16
ATOM     16  C   UNL     1     144.990 108.410 195.449  0.00  0.00    +0.000 C 
BRANCH  16  17
ATOM     17  C   UNL     1     144.702 108.338 194.802  0.00  0.00    +0.000 C 
BRANCH  17  18
ATOM     18  C   UNL     1     144.336 107.755 194.637  0.00  0.00    +0.000 C 
BRANCH  18  19
ATOM     19  N   UNL     1     144.059 107.668 193.985  0.00  0.00    +0.000 NA
ATOM     20  C   UNL     1     144.440 107.356 193.497  0.00  0.00    +0.000 C 
ATOM     21  C   UNL     1     143.416 107.897 193.857  0.00  0.00    +0.000 C 
ENDBRANCH  18  19
ENDBRANCH  17  18
ENDBRANCH  16  17
ENDBRANCH  15  16
ENDBRANCH   1  15
TORSDOF 7
ENDMDL
MODEL 8
REMARK VINA RESULT:      -8.7      1.460      3.834
REMARK  Name = 
REMARK  7 active torsions:
REMARK  status: ('A' for Active; 'I' for Inactive)
REMARK    1  A    between atoms: C_1  and  C_2
REMARK    2  A    between atoms: C_1  and  O_4
REMARK    3  A    between atoms: C_2  and  C_5
REMARK    4  A    between atoms: N_3  and  C_7
REMARK    5  A    between atoms: O_4  and  C_10
REMARK    6  A    between atoms: C_6  and  C_7
REMARK    7  A    between atoms: C_6  and  C_10
REMARK                            x       y       z     vdW  Elec       q    Type
REMARK                         _______ _______ _______ _____ _____    ______ ____
ROOT
ATOM      1  C   UNL     1     147.604 108.135 194.457  0.00  0.00    +0.000 C 
ATOM      2  C   UNL     1     148.291 108.172 194.619  0.00  0.00    +0.000 C 
ATOM      3  C   UNL     1     147.063 108.373 194.839  0.00  0.00    +0.000 C 
ATOM      4  C   UNL     1     147.063 108.700 195.463  0.00  0.00    +0.000 C 
ATOM      5  C   UNL     1     148.609 108.445 195.181  0.00  0.00    +0.000 C 
ATOM      6  C   UNL     1     147.606 108.873 195.864  0.00  0.00    +0.000 C 
ATOM      7  C   UNL     1     148.296 108.757 195.734  0.00  0.00    +0.000 C 
ENDROOT
BRANCH   1   8
ATOM      8  C   UNL     1     147.495 107.820 193.842  0.00  0.00    +0.000 C 
BRANCH   8   9
ATOM      9  C   UNL     1     148.036 107.588 193.456  0.00  0.00    +0.000 A 
ATOM     10  C   UNL     1     148.286 106.932 193.545  0.00  0.00    +0.000 A 
ATOM     11  C   UNL     1     148.330 108.016 192.976  0.00  0.00    +0.000 A 
ATOM     12  C   UNL     1     148.873 107.799 192.581  0.00  0.00    +0.000 A 
ATOM     13  C   UNL     1     148.833 106.708 193.151  0.00  0.00    +0.000 A 
ATOM     14  C   UNL     1     149.121 107.137 192.676  0.00  0.00    +0.000 A 
ENDBRANCH   8   9
ENDBRANCH   1   8
BRANCH   1  15
ATOM     15  O   UNL     1     146.860 108.000 194.102  0.00  0.00    +0.000 OA
BRANCH  15  16
ATOM     16  C   UNL     1     146.294 107.671 193.925  0.00  0.00    +0.000 C 
BRANCH  16  17
ATOM     17  C   UNL     1     145.739 108.055 193.697  0.00  0.00    +0.000 C 
BRANCH  17  18
ATOM     18  C   UNL     1     145.149 107.733 193.477  0.00  0.00    +0.000 C 
BRANCH  18  19
ATOM     19  N   UNL     1     144.578 108.111 193.276  0.00  0.00    +0.000 NA
ATOM     20  C   UNL     1     144.608 108.479 192.690  0.00  0.00    +0.000 C 
ATOM     21  C   UNL     1     144.008 108.101 193.673  0.00  0.00    +0.000 C 
ENDBRANCH  18  19
ENDBRANCH  17  18
ENDBRANCH  16  17
ENDBRANCH  15  16
ENDBRANCH   1  15
TORSDOF 7
ENDMDL
MODEL 9
REMARK VINA RESULT:      -8.3     59.715     60.697
REMARK  Name = 
REMARK  7 active torsions:
REMARK  status: ('A' for Active; 'I' for Inactive)
REMARK    1  A    between atoms: C_1  and  C_2
REMARK    2  A    between atoms: C_1  and  O_4
REMARK    3  A    between atoms: C_2  and  C_5
REMARK    4  A    between atoms: N_3  and  C_7
REMARK    5  A    between atoms: O_4  and  C_10
REMARK    6  A    between atoms: C_6  and  C_7
REMARK    7  A    between atoms: C_6  and  C_10
REMARK                            x       y       z     vdW  Elec       q    Type
REMARK                         _______ _______ _______ _____ _____    ______ ____
ROOT
ATOM      1  C   UNL     1     108.587 143.869 163.847  0.00  0.00    +0.000 C 
ATOM      2  C   UNL     1     108.474 143.696 164.523  0.00  0.00    +0.000 C 
ATOM      3  C   UNL     1     109.088 143.618 163.421  0.00  0.00    +0.000 C 
ATOM      4  C   UNL     1     109.591 143.144 163.551  0.00  0.00    +0.000 C 
ATOM      5  C   UNL     1     108.815 143.245 164.937  0.00  0.00    +0.000 C 
ATOM      6  C   UNL     1     109.723 142.798 164.142  0.00  0.00    +0.000 C 
ATOM      7  C   UNL     1     109.373 142.847 164.760  0.00  0.00    +0.000 C 
ENDROOT
BRANCH   1   8
ATOM      8  C   UNL     1     108.129 144.345 163.616  0.00  0.00    +0.000 C 
BRANCH   8   9
ATOM      9  C   UNL     1     107.587 144.546 164.018  0.00  0.00    +0.000 A 
ATOM     10  C   UNL     1     106.977 144.187 164.004  0.00  0.00    +0.000 A 
ATOM     11  C   UNL     1     107.654 145.110 164.438  0.00  0.00    +0.000 A 
ATOM     12  C   UNL     1     107.121 145.325 164.847  0.00  0.00    +0.000 A 
ATOM     13  C   UNL     1     106.436 144.398 164.413  0.00  0.00    +0.000 A 
ATOM     14  C   UNL     1     106.508 144.959 164.828  0.00  0.00    +0.000 A 
ENDBRANCH   8   9
ENDBRANCH   1   8
BRANCH   1  15
ATOM     15  O   UNL     1     108.564 144.194 163.078  0.00  0.00    +0.000 OA
BRANCH  15  16
ATOM     16  C   UNL     1     108.710 144.610 162.562  0.00  0.00    +0.000 C 
BRANCH  16  17
ATOM     17  C   UNL     1     108.535 144.403 161.903  0.00  0.00    +0.000 C 
BRANCH  17  18
ATOM     18  C   UNL     1     108.680 144.817 161.348  0.00  0.00    +0.000 C 
BRANCH  18  19
ATOM     19  N   UNL     1     108.453 144.647 160.694  0.00  0.00    +0.000 NA
ATOM     20  C   UNL     1     108.865 144.272 160.282  0.00  0.00    +0.000 C 
ATOM     21  C   UNL     1     107.826 144.862 160.487  0.00  0.00    +0.000 C 
ENDBRANCH  18  19
ENDBRANCH  17  18
ENDBRANCH  16  17
ENDBRANCH  15  16
ENDBRANCH   1  15
TORSDOF 7
ENDMDL
MODEL 10
REMARK VINA RESULT:      -7.9     89.260     90.357
REMARK  Name = 
REMARK  7 active torsions:
REMARK  status: ('A' for Active; 'I' for Inactive)
REMARK    1  A    between atoms: C_1  and  C_2
REMARK    2  A    between atoms: C_1  and  O_4
REMARK    3  A    between atoms: C_2  and  C_5
REMARK    4  A    between atoms: N_3  and  C_7
REMARK    5  A    between atoms: O_4  and  C_10
REMARK    6  A    between atoms: C_6  and  C_7
REMARK    7  A    between atoms: C_6  and  C_10
REMARK                            x       y       z     vdW  Elec       q    Type
REMARK                         _______ _______ _______ _____ _____    ______ ____
ROOT
ATOM      1  C   UNL     1     132.956 111.744 104.891  0.00  0.00    +0.000 C 
ATOM      2  C   UNL     1     132.267 111.888 104.955  0.00  0.00    +0.000 C 
ATOM      3  C   UNL     1     133.370 111.877 104.337  0.00  0.00    +0.000 C 
ATOM      4  C   UNL     1     133.211 112.179 103.721  0.00  0.00    +0.000 C 
ATOM      5  C   UNL     1     131.825 112.190 104.503  0.00  0.00    +0.000 C 
ATOM      6  C   UNL     1     132.597 112.425 103.501  0.00  0.00    +0.000 C 
ATOM      7  C   UNL     1     131.979 112.428 103.855  0.00  0.00    +0.000 C 
ENDROOT
BRANCH   1   8
ATOM      8  C   UNL     1     133.216 111.436 105.463  0.00  0.00    +0.000 C 
BRANCH   8   9
ATOM      9  C   UNL     1     132.798 111.278 106.007  0.00  0.00    +0.000 A 
ATOM     10  C   UNL     1     132.709 111.737 106.538  0.00  0.00    +0.000 A 
ATOM     11  C   UNL     1     132.465 110.654 106.021  0.00  0.00    +0.000 A 
ATOM     12  C   UNL     1     132.042 110.481 106.558  0.00  0.00    +0.000 A 
ATOM     13  C   UNL     1     132.285 111.568 107.082  0.00  0.00    +0.000 A 
ATOM     14  C   UNL     1     131.957 110.948 107.090  0.00  0.00    +0.000 A 
ENDBRANCH   8   9
ENDBRANCH   1   8
BRANCH   1  15
ATOM     15  O   UNL     1     133.748 111.501 105.000  0.00  0.00    +0.000 OA
BRANCH  15  16
ATOM     16  C   UNL     1     134.416 111.551 105.109  0.00  0.00    +0.000 C 
BRANCH  16  17
ATOM     17  C   UNL     1     134.825 110.988 104.958  0.00  0.00    +0.000 C 
BRANCH  17  18
ATOM     18  C   UNL     1     135.528 111.030 105.019  0.00  0.00    +0.000 C 
BRANCH  18  19
ATOM     19  N   UNL     1     135.937 110.449 104.965  0.00  0.00    +0.000 NA
ATOM     20  C   UNL     1     136.118 110.222 104.335  0.00  0.00    +0.000 C 
ATOM     21  C   UNL     1     136.144 110.124 105.543  0.00  0.00    +0.000 C 
ENDBRANCH  18  19
ENDBRANCH  17  18
ENDBRANCH  16  17
ENDBRANCH  15  16
ENDBRANCH   1  15
TORSDOF 7
ENDMDL
MODEL 11
REMARK VINA RESULT:      -7.7     98.136     98.924
REMARK  Name = 
REMARK  7 active torsions:
REMARK  status: ('A' for Active; 'I' for Inactive)
REMARK    1  A    between atoms: C_1  and  C_2
REMARK    2  A    between atoms: C_1  and  O_4
REMARK    3  A    between atoms: C_2  and  C_5
REMARK    4  A    between atoms: N_3  and  C_7
REMARK    5  A    between atoms: O_4  and  C_10
REMARK    6  A    between atoms: C_6  and  C_7
REMARK    7  A    between atoms: C_6  and  C_10
REMARK                            x       y       z     vdW  Elec       q    Type
REMARK                         _______ _______ _______ _____ _____    ______ ____
ROOT
ATOM      1  C   UNL     1     127.664 146.890 105.499  0.00  0.00    +0.000 C 
ATOM      2  C   UNL     1     127.738 146.213 105.688  0.00  0.00    +0.000 C 
ATOM      3  C   UNL     1     127.153 147.168 105.102  0.00  0.00    +0.000 C 
ATOM      4  C   UNL     1     126.599 146.855 104.801  0.00  0.00    +0.000 C 
ATOM      5  C   UNL     1     127.340 145.656 105.540  0.00  0.00    +0.000 C 
ATOM      6  C   UNL     1     126.414 146.183 104.818  0.00  0.00    +0.000 C 
ATOM      7  C   UNL     1     126.749 145.650 105.150  0.00  0.00    +0.000 C 
ENDROOT
BRANCH   1   8
ATOM      8  C   UNL     1     128.176 147.293 105.753  0.00  0.00    +0.000 C 
BRANCH   8   9
ATOM      9  C   UNL     1     128.663 147.024 106.186  0.00  0.00    +0.000 A 
ATOM     10  C   UNL     1     128.553 147.007 106.885  0.00  0.00    +0.000 A 
ATOM     11  C   UNL     1     129.266 146.770 105.917  0.00  0.00    +0.000 A 
ATOM     12  C   UNL     1     129.763 146.498 106.336  0.00  0.00    +0.000 A 
ATOM     13  C   UNL     1     129.050 146.735 107.312  0.00  0.00    +0.000 A 
ATOM     14  C   UNL     1     129.646 146.484 107.040  0.00  0.00    +0.000 A 
ENDBRANCH   8   9
ENDBRANCH   1   8
BRANCH   1  15
ATOM     15  O   UNL     1     127.744 147.713 105.381  0.00  0.00    +0.000 OA
BRANCH  15  16
ATOM     16  C   UNL     1     127.905 148.295 105.072  0.00  0.00    +0.000 C 
BRANCH  16  17
ATOM     17  C   UNL     1     127.583 148.892 105.289  0.00  0.00    +0.000 C 
BRANCH  17  18
ATOM     18  C   UNL     1     127.741 149.513 104.988  0.00  0.00    +0.000 C 
BRANCH  18  19
ATOM     19  N   UNL     1     127.422 150.114 105.200  0.00  0.00    +0.000 NA
ATOM     20  C   UNL     1     127.665 150.445 105.759  0.00  0.00    +0.000 C 
ATOM     21  C   UNL     1     126.877 150.354 104.842  0.00  0.00    +0.000 C 
ENDBRANCH  18  19
ENDBRANCH  17  18
ENDBRANCH  16  17
ENDBRANCH  15  16
ENDBRANCH   1  15
TORSDOF 7
ENDMDL
