REMARK  Name = 
REMARK  4 active torsions:
REMARK  status: ('A' for Active; 'I' for Inactive)
REMARK    1  A    between atoms: C_1  and  C_9
REMARK    2  A    between atoms: C_7  and  C_11
REMARK    3  A    between atoms: C_11  and  C_12
REMARK    4  A    between atoms: C_21  and  O_23
REMARK                            x       y       z     vdW  Elec       q    Type
REMARK                         _______ _______ _______ _____ _____    ______ ____
ROOT
ATOM      1  C   UNL     1       5.310   4.592   0.000  0.00  0.00    +0.000 C 
ATOM      2  O   UNL     1       5.301   3.764   0.000  0.00  0.00    +0.000 OA
ENDROOT
BRANCH   1   3
ATOM      3  C   UNL     1       4.598   5.014   0.000  0.00  0.00    +0.000 A 
ATOM      4  C   UNL     1       4.609   5.841   0.000  0.00  0.00    +0.000 A 
ATOM      5  C   UNL     1       3.897   6.262   0.000  0.00  0.00    +0.000 A 
ATOM      6  N   UNL     1       3.175   5.856   0.000  0.00  0.00    +0.000 NA
ATOM      7  C   UNL     1       3.881   4.606   0.000  0.00  0.00    +0.000 A 
ATOM      8  C   UNL     1       3.172   5.025   0.000  0.00  0.00    +0.000 A 
ATOM      9  C   UNL     1       2.458   4.622   0.000  0.00  0.00    +0.000 A 
ATOM     10  C   UNL     1       2.450   3.799   0.000  0.00  0.00    +0.000 A 
ATOM     11  C   UNL     1       3.163   3.382   0.000  0.00  0.00    +0.000 A 
ATOM     12  C   UNL     1       3.875   3.788   0.000  0.00  0.00    +0.000 A 
BRANCH  11  13
ATOM     13  O   UNL     1       3.158   2.554   0.000  0.00  0.00    +0.000 OA
ATOM     14  C   UNL     1       2.439   2.144   0.000  0.00  0.00    +0.000 C 
ENDBRANCH  11  13
ENDBRANCH   1   3
BRANCH   1  21
ATOM     15  C   UNL     1       7.701   4.271   0.000  0.00  0.00    +0.000 C 
ATOM     16  C   UNL     1       6.967   4.612   0.000  0.00  0.00    +0.000 C 
ATOM     17  C   UNL     1       7.552   5.021   0.000  0.00  0.00    +0.000 C 
ATOM     18  C   UNL     1       6.142   4.258   0.000  0.00  0.00    +0.000 C 
ATOM     19  C   UNL     1       7.102   5.634   0.000  0.00  0.00    +0.000 C 
ATOM     20  N   UNL     1       6.828   5.347   0.000  0.00  0.00    +0.000 NA
ATOM     21  C   UNL     1       6.036   5.000   0.000  0.00  0.00    +0.000 C 
ATOM     22  C   UNL     1       6.862   6.230   0.000  0.00  0.00    +0.000 C 
BRANCH  15  23
ATOM     23  C   UNL     1       7.696   3.448   0.000  0.00  0.00    +0.000 C 
ATOM     24  C   UNL     1       8.411   3.030   0.000  0.00  0.00    +0.000 C 
ENDBRANCH  15  23
ENDBRANCH   1  21
TORSDOF 4
