REMARK  Name = 
REMARK  5 active torsions:
REMARK  status: ('A' for Active; 'I' for Inactive)
REMARK    1  A    between atoms: S_4  and  C_5
REMARK    2  A    between atoms: C_6  and  C_24
REMARK    3  A    between atoms: C_14  and  C_25
REMARK    4  A    between atoms: S_19  and  C_24
REMARK    5  A    between atoms: S_19  and  C_25
REMARK                            x       y       z     vdW  Elec       q    Type
REMARK                         _______ _______ _______ _____ _____    ______ ____
ROOT
ATOM      1  S   UNL     1       9.267  -1.892   0.000  0.00  0.00    +0.000 S 
ATOM      2  N   UNL     1       9.883  -2.250   0.000  0.00  0.00    +0.000 NA
ATOM      3  C   UNL     1       8.654  -2.250   0.000  0.00  0.00    +0.000 A 
ATOM      4  C   UNL     1       7.429  -2.250   0.000  0.00  0.00    +0.000 A 
ATOM      5  C   UNL     1       9.883  -2.962   0.000  0.00  0.00    +0.000 C 
ATOM      6  C   UNL     1       8.654  -2.962   0.000  0.00  0.00    +0.000 A 
ATOM      7  N   UNL     1       9.267  -3.317   0.000  0.00  0.00    +0.000 NA
ATOM      8  C   UNL     1       8.042  -1.896   0.000  0.00  0.00    +0.000 A 
ATOM      9  C   UNL     1       7.429  -2.962   0.000  0.00  0.00    +0.000 A 
ATOM     10  C   UNL     1       8.042  -3.317   0.000  0.00  0.00    +0.000 A 
ATOM     11  O   UNL     1       8.904  -1.275   0.000  0.00  0.00    +0.000 OA
ATOM     12  O   UNL     1       9.617  -1.275   0.000  0.00  0.00    +0.000 OA
ATOM     13  C   UNL     1      10.496  -1.896   0.000  0.00  0.00    +0.000 C 
ATOM     14 CL   UNL     1       6.817  -3.317   0.000  0.00  0.00    +0.000 Cl
ENDROOT
BRANCH   4  15
ATOM     15  S   UNL     1       6.817  -1.896   0.000  0.00  0.00    +0.000 S 
ATOM     16  O   UNL     1       6.454  -1.279   0.000  0.00  0.00    +0.000 OA
ATOM     17  O   UNL     1       7.167  -1.279   0.000  0.00  0.00    +0.000 OA
ATOM     18  N   UNL     1       6.204  -2.250   0.000  0.00  0.00    +0.000 NA
ENDBRANCH   4  15
BRANCH   5  19
ATOM     19  C   UNL     1      10.496  -3.317   0.000  0.00  0.00    +0.000 C 
BRANCH  19  20
ATOM     20  S   UNL     1      11.108  -2.962   0.000  0.00  0.00    +0.000 S 
BRANCH  20  21
ATOM     21  C   UNL     1      11.721  -3.321   0.000  0.00  0.00    +0.000 C 
BRANCH  21  22
ATOM     22  C   UNL     1      12.338  -2.967   0.000  0.00  0.00    +0.000 C 
ATOM     23  F   UNL     1      12.950  -3.321   0.000  0.00  0.00    +0.000 F 
ATOM     24  F   UNL     1      12.688  -2.350   0.000  0.00  0.00    +0.000 F 
ATOM     25  F   UNL     1      11.979  -2.350   0.000  0.00  0.00    +0.000 F 
ENDBRANCH  21  22
ENDBRANCH  20  21
ENDBRANCH  19  20
ENDBRANCH   5  19
TORSDOF 5
