MODEL 1
REMARK VINA RESULT:     -10.6      0.000      0.000
REMARK  Name = 
REMARK  10 active torsions:
REMARK  status: ('A' for Active; 'I' for Inactive)
REMARK    1  A    between atoms: C_1  and  C_6
REMARK    2  A    between atoms: C_2  and  C_10
REMARK    3  A    between atoms: C_3  and  C_9
REMARK    4  A    between atoms: C_6  and  O_13
REMARK    5  A    between atoms: N_8  and  C_11
REMARK    6  A    between atoms: C_10  and  O_18
REMARK    7  A    between atoms: O_13  and  C_22
REMARK    8  A    between atoms: O_18  and  C_26
REMARK    9  A    between atoms: O_25  and  C_27
REMARK   10  A    between atoms: C_26  and  C_27
REMARK                            x       y       z     vdW  Elec       q    Type
REMARK                         _______ _______ _______ _____ _____    ______ ____
ROOT
ATOM      1  C   UNL     1     122.490 143.664 168.596  0.00  0.00    +0.000 C 
ATOM      2  C   UNL     1     122.759 144.008 167.460  0.00  0.00    +0.000 C 
ATOM      3  C   UNL     1     122.976 143.792 168.102  0.00  0.00    +0.000 C 
ATOM      4  C   UNL     1     121.800 143.748 168.458  0.00  0.00    +0.000 C 
ATOM      5  C   UNL     1     122.070 144.092 167.322  0.00  0.00    +0.000 C 
ATOM      6  N   UNL     1     121.593 143.960 167.825  0.00  0.00    +0.000 NA
ATOM      7  C   UNL     1     121.338 143.606 168.988  0.00  0.00    +0.000 C 
ATOM      8  C   UNL     1     121.865 144.309 166.674  0.00  0.00    +0.000 C 
ENDROOT
BRANCH   3   9
ATOM      9  C   UNL     1     123.670 143.708 168.241  0.00  0.00    +0.000 A 
ATOM     10  C   UNL     1     124.641 142.985 168.274  0.00  0.00    +0.000 A 
ATOM     11  C   UNL     1     123.972 143.067 168.140  0.00  0.00    +0.000 A 
ATOM     12  C   UNL     1     124.049 144.256 168.476  0.00  0.00    +0.000 A 
ATOM     13  C   UNL     1     125.045 143.541 168.517  0.00  0.00    +0.000 A 
ATOM     14  C   UNL     1     124.735 144.172 168.613  0.00  0.00    +0.000 A 
BRANCH  10  15
ATOM     15  N   UNL     1     124.959 142.334 168.174  0.00  0.00    +0.000 N 
ATOM     16  O   UNL     1     125.578 142.206 168.554  0.00  0.00    +0.000 OA
ATOM     17  O   UNL     1     124.672 141.863 167.730  0.00  0.00    +0.000 OA
ENDBRANCH  10  15
ENDBRANCH   3   9
BRANCH   1  18
ATOM     18  C   UNL     1     122.693 143.447 169.243  0.00  0.00    +0.000 C 
ATOM     19  O   UNL     1     123.131 143.857 169.628  0.00  0.00    +0.000 OA
BRANCH  18  20
ATOM     20  O   UNL     1     122.459 142.825 169.500  0.00  0.00    +0.000 OA
BRANCH  20  21
ATOM     21  C   UNL     1     122.408 142.736 170.215  0.00  0.00    +0.000 C 
ATOM     22  C   UNL     1     122.268 143.284 170.624  0.00  0.00    +0.000 C 
ATOM     23  C   UNL     1     122.499 142.090 170.502  0.00  0.00    +0.000 C 
ENDBRANCH  20  21
ENDBRANCH  18  20
ENDBRANCH   1  18
BRANCH   2  24
ATOM     24  C   UNL     1     123.222 144.141 166.958  0.00  0.00    +0.000 C 
ATOM     25  O   UNL     1     123.663 144.662 167.040  0.00  0.00    +0.000 OA
BRANCH  24  26
ATOM     26  O   UNL     1     123.235 143.736 166.364  0.00  0.00    +0.000 OA
BRANCH  26  27
ATOM     27  C   UNL     1     123.491 144.021 165.770  0.00  0.00    +0.000 C 
BRANCH  27  28
ATOM     28  C   UNL     1     123.558 143.607 165.190  0.00  0.00    +0.000 C 
BRANCH  28  29
ATOM     29  O   UNL     1     123.949 143.840 164.648  0.00  0.00    +0.000 OA
ATOM     30  C   UNL     1     124.095 143.413 164.120  0.00  0.00    +0.000 C 
ENDBRANCH  28  29
ENDBRANCH  27  28
ENDBRANCH  26  27
ENDBRANCH  24  26
ENDBRANCH   2  24
TORSDOF 10
ENDMDL
MODEL 2
REMARK VINA RESULT:      -9.8     35.809     36.928
REMARK  Name = 
REMARK  10 active torsions:
REMARK  status: ('A' for Active; 'I' for Inactive)
REMARK    1  A    between atoms: C_1  and  C_6
REMARK    2  A    between atoms: C_2  and  C_10
REMARK    3  A    between atoms: C_3  and  C_9
REMARK    4  A    between atoms: C_6  and  O_13
REMARK    5  A    between atoms: N_8  and  C_11
REMARK    6  A    between atoms: C_10  and  O_18
REMARK    7  A    between atoms: O_13  and  C_22
REMARK    8  A    between atoms: O_18  and  C_26
REMARK    9  A    between atoms: O_25  and  C_27
REMARK   10  A    between atoms: C_26  and  C_27
REMARK                            x       y       z     vdW  Elec       q    Type
REMARK                         _______ _______ _______ _____ _____    ______ ____
ROOT
ATOM      1  C   UNL     1     106.305 126.882 196.273  0.00  0.00    +0.000 C 
ATOM      2  C   UNL     1     106.941 127.581 197.040  0.00  0.00    +0.000 C 
ATOM      3  C   UNL     1     106.340 127.455 196.682  0.00  0.00    +0.000 C 
ATOM      4  C   UNL     1     106.856 126.440 196.219  0.00  0.00    +0.000 C 
ATOM      5  C   UNL     1     107.492 127.139 196.987  0.00  0.00    +0.000 C 
ATOM      6  N   UNL     1     107.445 126.569 196.574  0.00  0.00    +0.000 NA
ATOM      7  C   UNL     1     106.780 125.869 195.793  0.00  0.00    +0.000 C 
ATOM      8  C   UNL     1     108.089 127.277 197.352  0.00  0.00    +0.000 C 
ENDROOT
BRANCH   3   9
ATOM      9  C   UNL     1     105.785 127.900 196.736  0.00  0.00    +0.000 A 
ATOM     10  C   UNL     1     105.218 128.901 196.357  0.00  0.00    +0.000 A 
ATOM     11  C   UNL     1     105.752 128.472 196.305  0.00  0.00    +0.000 A 
ATOM     12  C   UNL     1     105.279 127.773 197.211  0.00  0.00    +0.000 A 
ATOM     13  C   UNL     1     104.687 128.782 196.843  0.00  0.00    +0.000 A 
ATOM     14  C   UNL     1     104.732 128.212 197.264  0.00  0.00    +0.000 A 
BRANCH  10  15
ATOM     15  N   UNL     1     105.174 129.487 195.922  0.00  0.00    +0.000 N 
ATOM     16  O   UNL     1     104.812 130.071 196.189  0.00  0.00    +0.000 OA
ATOM     17  O   UNL     1     105.471 129.476 195.280  0.00  0.00    +0.000 OA
ENDBRANCH  10  15
ENDBRANCH   3   9
BRANCH   1  18
ATOM     18  C   UNL     1     105.709 126.745 195.909  0.00  0.00    +0.000 C 
ATOM     19  O   UNL     1     105.103 126.624 196.262  0.00  0.00    +0.000 OA
BRANCH  18  20
ATOM     20  O   UNL     1     105.724 126.729 195.197  0.00  0.00    +0.000 OA
BRANCH  20  21
ATOM     21  C   UNL     1     105.267 126.294 194.844  0.00  0.00    +0.000 C 
ATOM     22  C   UNL     1     105.162 126.384 194.159  0.00  0.00    +0.000 C 
ATOM     23  C   UNL     1     104.924 125.777 195.193  0.00  0.00    +0.000 C 
ENDBRANCH  20  21
ENDBRANCH  18  20
ENDBRANCH   1  18
BRANCH   2  24
ATOM     24  C   UNL     1     106.997 128.141 197.450  0.00  0.00    +0.000 C 
ATOM     25  O   UNL     1     106.613 128.177 198.019  0.00  0.00    +0.000 OA
BRANCH  24  26
ATOM     26  O   UNL     1     107.451 128.670 197.276  0.00  0.00    +0.000 OA
BRANCH  26  27
ATOM     27  C   UNL     1     107.704 129.079 197.795  0.00  0.00    +0.000 C 
BRANCH  27  28
ATOM     28  C   UNL     1     108.116 129.638 197.624  0.00  0.00    +0.000 C 
BRANCH  28  29
ATOM     29  O   UNL     1     108.191 130.162 198.093  0.00  0.00    +0.000 OA
ATOM     30  C   UNL     1     108.594 130.708 197.940  0.00  0.00    +0.000 C 
ENDBRANCH  28  29
ENDBRANCH  27  28
ENDBRANCH  26  27
ENDBRANCH  24  26
ENDBRANCH   2  24
TORSDOF 10
ENDMDL
MODEL 3
REMARK VINA RESULT:      -9.6     36.194     37.428
REMARK  Name = 
REMARK  10 active torsions:
REMARK  status: ('A' for Active; 'I' for Inactive)
REMARK    1  A    between atoms: C_1  and  C_6
REMARK    2  A    between atoms: C_2  and  C_10
REMARK    3  A    between atoms: C_3  and  C_9
REMARK    4  A    between atoms: C_6  and  O_13
REMARK    5  A    between atoms: N_8  and  C_11
REMARK    6  A    between atoms: C_10  and  O_18
REMARK    7  A    between atoms: O_13  and  C_22
REMARK    8  A    between atoms: O_18  and  C_26
REMARK    9  A    between atoms: O_25  and  C_27
REMARK   10  A    between atoms: C_26  and  C_27
REMARK                            x       y       z     vdW  Elec       q    Type
REMARK                         _______ _______ _______ _____ _____    ______ ____
ROOT
ATOM      1  C   UNL     1     105.836 127.261 196.244  0.00  0.00    +0.000 C 
ATOM      2  C   UNL     1     106.110 128.224 196.936  0.00  0.00    +0.000 C 
ATOM      3  C   UNL     1     106.186 127.531 196.793  0.00  0.00    +0.000 C 
ATOM      4  C   UNL     1     105.418 127.667 195.843  0.00  0.00    +0.000 C 
ATOM      5  C   UNL     1     105.692 128.631 196.534  0.00  0.00    +0.000 C 
ATOM      6  N   UNL     1     105.347 128.348 195.987  0.00  0.00    +0.000 NA
ATOM      7  C   UNL     1     105.080 127.353 195.294  0.00  0.00    +0.000 C 
ATOM      8  C   UNL     1     105.625 129.324 196.688  0.00  0.00    +0.000 C 
ENDROOT
BRANCH   3   9
ATOM      9  C   UNL     1     106.606 127.122 197.198  0.00  0.00    +0.000 A 
ATOM     10  C   UNL     1     106.736 126.407 198.167  0.00  0.00    +0.000 A 
ATOM     11  C   UNL     1     106.331 126.802 197.777  0.00  0.00    +0.000 A 
ATOM     12  C   UNL     1     107.285 127.037 197.023  0.00  0.00    +0.000 A 
ATOM     13  C   UNL     1     107.439 126.310 197.999  0.00  0.00    +0.000 A 
ATOM     14  C   UNL     1     107.700 126.632 197.423  0.00  0.00    +0.000 A 
BRANCH  10  15
ATOM     15  N   UNL     1     106.465 126.076 198.760  0.00  0.00    +0.000 N 
ATOM     16  O   UNL     1     106.746 125.415 198.928  0.00  0.00    +0.000 OA
ATOM     17  O   UNL     1     105.959 126.391 199.143  0.00  0.00    +0.000 OA
ENDBRANCH  10  15
ENDBRANCH   3   9
BRANCH   1  18
ATOM     18  C   UNL     1     105.903 126.569 196.091  0.00  0.00    +0.000 C 
ATOM     19  O   UNL     1     106.541 126.311 195.906  0.00  0.00    +0.000 OA
BRANCH  18  20
ATOM     20  O   UNL     1     105.334 126.141 196.123  0.00  0.00    +0.000 OA
BRANCH  20  21
ATOM     21  C   UNL     1     105.310 125.554 195.701  0.00  0.00    +0.000 C 
ATOM     22  C   UNL     1     105.665 125.545 195.100  0.00  0.00    +0.000 C 
ATOM     23  C   UNL     1     104.924 124.989 195.897  0.00  0.00    +0.000 C 
ENDBRANCH  20  21
ENDBRANCH  18  20
ENDBRANCH   1  18
BRANCH   2  24
ATOM     24  C   UNL     1     106.446 128.512 197.473  0.00  0.00    +0.000 C 
ATOM     25  O   UNL     1     106.200 128.419 198.109  0.00  0.00    +0.000 OA
BRANCH  24  26
ATOM     26  O   UNL     1     107.039 128.901 197.359  0.00  0.00    +0.000 OA
BRANCH  26  27
ATOM     27  C   UNL     1     107.197 129.414 197.821  0.00  0.00    +0.000 C 
BRANCH  27  28
ATOM     28  C   UNL     1     107.783 129.809 197.710  0.00  0.00    +0.000 C 
BRANCH  28  29
ATOM     29  O   UNL     1     108.049 130.183 198.249  0.00  0.00    +0.000 OA
ATOM     30  C   UNL     1     108.586 130.611 198.140  0.00  0.00    +0.000 C 
ENDBRANCH  28  29
ENDBRANCH  27  28
ENDBRANCH  26  27
ENDBRANCH  24  26
ENDBRANCH   2  24
TORSDOF 10
ENDMDL
MODEL 4
REMARK VINA RESULT:      -9.3     34.036     35.982
REMARK  Name = 
REMARK  10 active torsions:
REMARK  status: ('A' for Active; 'I' for Inactive)
REMARK    1  A    between atoms: C_1  and  C_6
REMARK    2  A    between atoms: C_2  and  C_10
REMARK    3  A    between atoms: C_3  and  C_9
REMARK    4  A    between atoms: C_6  and  O_13
REMARK    5  A    between atoms: N_8  and  C_11
REMARK    6  A    between atoms: C_10  and  O_18
REMARK    7  A    between atoms: O_13  and  C_22
REMARK    8  A    between atoms: O_18  and  C_26
REMARK    9  A    between atoms: O_25  and  C_27
REMARK   10  A    between atoms: C_26  and  C_27
REMARK                            x       y       z     vdW  Elec       q    Type
REMARK                         _______ _______ _______ _____ _____    ______ ____
ROOT
ATOM      1  C   UNL     1     106.818 128.969 197.267  0.00  0.00    +0.000 C 
ATOM      2  C   UNL     1     106.433 130.122 197.210  0.00  0.00    +0.000 C 
ATOM      3  C   UNL     1     106.961 129.657 197.317  0.00  0.00    +0.000 C 
ATOM      4  C   UNL     1     106.164 128.743 197.114  0.00  0.00    +0.000 C 
ATOM      5  C   UNL     1     105.780 129.897 197.056  0.00  0.00    +0.000 C 
ATOM      6  N   UNL     1     105.649 129.205 197.009  0.00  0.00    +0.000 NA
ATOM      7  C   UNL     1     106.061 128.035 197.073  0.00  0.00    +0.000 C 
ATOM      8  C   UNL     1     105.260 130.373 196.951  0.00  0.00    +0.000 C 
ENDROOT
BRANCH   3   9
ATOM      9  C   UNL     1     107.619 129.884 197.472  0.00  0.00    +0.000 A 
ATOM     10  C   UNL     1     108.711 130.236 197.087  0.00  0.00    +0.000 A 
ATOM     11  C   UNL     1     108.077 130.017 196.938  0.00  0.00    +0.000 A 
ATOM     12  C   UNL     1     107.809 129.974 198.146  0.00  0.00    +0.000 A 
ATOM     13  C   UNL     1     108.922 130.334 197.778  0.00  0.00    +0.000 A 
ATOM     14  C   UNL     1     108.459 130.198 198.298  0.00  0.00    +0.000 A 
BRANCH  10  15
ATOM     15  N   UNL     1     109.187 130.375 196.549  0.00  0.00    +0.000 N 
ATOM     16  O   UNL     1     109.792 130.756 196.732  0.00  0.00    +0.000 OA
ATOM     17  O   UNL     1     109.057 130.147 195.891  0.00  0.00    +0.000 OA
ENDBRANCH  10  15
ENDBRANCH   3   9
BRANCH   1  18
ATOM     18  C   UNL     1     107.336 128.492 197.373  0.00  0.00    +0.000 C 
ATOM     19  O   UNL     1     107.670 128.472 198.001  0.00  0.00    +0.000 OA
BRANCH  18  20
ATOM     20  O   UNL     1     107.517 128.042 196.851  0.00  0.00    +0.000 OA
BRANCH  20  21
ATOM     21  C   UNL     1     107.789 127.395 197.022  0.00  0.00    +0.000 C 
ATOM     22  C   UNL     1     108.252 127.090 196.597  0.00  0.00    +0.000 C 
ATOM     23  C   UNL     1     107.586 127.069 197.621  0.00  0.00    +0.000 C 
ENDBRANCH  20  21
ENDBRANCH  18  20
ENDBRANCH   1  18
BRANCH   2  24
ATOM     24  C   UNL     1     106.552 130.806 197.254  0.00  0.00    +0.000 C 
ATOM     25  O   UNL     1     106.697 131.080 197.868  0.00  0.00    +0.000 OA
BRANCH  24  26
ATOM     26  O   UNL     1     106.523 131.215 196.664  0.00  0.00    +0.000 OA
BRANCH  26  27
ATOM     27  C   UNL     1     106.378 131.904 196.740  0.00  0.00    +0.000 C 
BRANCH  27  28
ATOM     28  C   UNL     1     106.425 132.332 196.169  0.00  0.00    +0.000 C 
BRANCH  28  29
ATOM     29  O   UNL     1     106.492 133.029 196.269  0.00  0.00    +0.000 OA
ATOM     30  C   UNL     1     106.815 133.416 195.792  0.00  0.00    +0.000 C 
ENDBRANCH  28  29
ENDBRANCH  27  28
ENDBRANCH  26  27
ENDBRANCH  24  26
ENDBRANCH   2  24
TORSDOF 10
ENDMDL
MODEL 5
REMARK VINA RESULT:      -9.3     35.601     36.882
REMARK  Name = 
REMARK  10 active torsions:
REMARK  status: ('A' for Active; 'I' for Inactive)
REMARK    1  A    between atoms: C_1  and  C_6
REMARK    2  A    between atoms: C_2  and  C_10
REMARK    3  A    between atoms: C_3  and  C_9
REMARK    4  A    between atoms: C_6  and  O_13
REMARK    5  A    between atoms: N_8  and  C_11
REMARK    6  A    between atoms: C_10  and  O_18
REMARK    7  A    between atoms: O_13  and  C_22
REMARK    8  A    between atoms: O_18  and  C_26
REMARK    9  A    between atoms: O_25  and  C_27
REMARK   10  A    between atoms: C_26  and  C_27
REMARK                            x       y       z     vdW  Elec       q    Type
REMARK                         _______ _______ _______ _____ _____    ______ ____
ROOT
ATOM      1  C   UNL     1     107.286 127.829 196.915  0.00  0.00    +0.000 C 
ATOM      2  C   UNL     1     106.616 126.935 196.433  0.00  0.00    +0.000 C 
ATOM      3  C   UNL     1     106.651 127.568 196.755  0.00  0.00    +0.000 C 
ATOM      4  C   UNL     1     107.877 127.471 196.759  0.00  0.00    +0.000 C 
ATOM      5  C   UNL     1     107.207 126.577 196.277  0.00  0.00    +0.000 C 
ATOM      6  N   UNL     1     107.836 126.849 196.442  0.00  0.00    +0.000 NA
ATOM      7  C   UNL     1     108.503 127.772 196.939  0.00  0.00    +0.000 C 
ATOM      8  C   UNL     1     107.157 125.943 195.954  0.00  0.00    +0.000 C 
ENDROOT
BRANCH   3   9
ATOM      9  C   UNL     1     106.057 127.929 196.912  0.00  0.00    +0.000 A 
ATOM     10  C   UNL     1     105.212 128.731 196.580  0.00  0.00    +0.000 A 
ATOM     11  C   UNL     1     105.785 128.383 196.429  0.00  0.00    +0.000 A 
ATOM     12  C   UNL     1     105.745 127.835 197.538  0.00  0.00    +0.000 A 
ATOM     13  C   UNL     1     104.880 128.644 197.223  0.00  0.00    +0.000 A 
ATOM     14  C   UNL     1     105.158 128.191 197.693  0.00  0.00    +0.000 A 
BRANCH  10  15
ATOM     15  N   UNL     1     104.927 129.196 196.094  0.00  0.00    +0.000 N 
ATOM     16  O   UNL     1     104.213 129.365 196.176  0.00  0.00    +0.000 OA
ATOM     17  O   UNL     1     105.331 129.462 195.576  0.00  0.00    +0.000 OA
ENDBRANCH  10  15
ENDBRANCH   3   9
BRANCH   1  18
ATOM     18  C   UNL     1     107.336 128.462 197.238  0.00  0.00    +0.000 C 
ATOM     19  O   UNL     1     107.073 128.542 197.895  0.00  0.00    +0.000 OA
BRANCH  18  20
ATOM     20  O   UNL     1     107.647 129.008 196.903  0.00  0.00    +0.000 OA
BRANCH  20  21
ATOM     21  C   UNL     1     107.974 129.522 197.293  0.00  0.00    +0.000 C 
ATOM     22  C   UNL     1     108.046 129.440 197.983  0.00  0.00    +0.000 C 
ATOM     23  C   UNL     1     108.221 130.109 196.976  0.00  0.00    +0.000 C 
ENDBRANCH  20  21
ENDBRANCH  18  20
ENDBRANCH   1  18
BRANCH   2  24
ATOM     24  C   UNL     1     106.000 126.658 196.266  0.00  0.00    +0.000 C 
ATOM     25  O   UNL     1     105.574 126.465 196.770  0.00  0.00    +0.000 OA
BRANCH  24  26
ATOM     26  O   UNL     1     105.817 126.578 195.576  0.00  0.00    +0.000 OA
BRANCH  26  27
ATOM     27  C   UNL     1     105.369 126.057 195.406  0.00  0.00    +0.000 C 
BRANCH  27  28
ATOM     28  C   UNL     1     105.161 125.988 194.725  0.00  0.00    +0.000 C 
BRANCH  28  29
ATOM     29  O   UNL     1     104.600 125.583 194.579  0.00  0.00    +0.000 OA
ATOM     30  C   UNL     1     104.467 125.403 193.921  0.00  0.00    +0.000 C 
ENDBRANCH  28  29
ENDBRANCH  27  28
ENDBRANCH  26  27
ENDBRANCH  24  26
ENDBRANCH   2  24
TORSDOF 10
ENDMDL
MODEL 6
REMARK VINA RESULT:      -9.3     34.944     36.164
REMARK  Name = 
REMARK  10 active torsions:
REMARK  status: ('A' for Active; 'I' for Inactive)
REMARK    1  A    between atoms: C_1  and  C_6
REMARK    2  A    between atoms: C_2  and  C_10
REMARK    3  A    between atoms: C_3  and  C_9
REMARK    4  A    between atoms: C_6  and  O_13
REMARK    5  A    between atoms: N_8  and  C_11
REMARK    6  A    between atoms: C_10  and  O_18
REMARK    7  A    between atoms: O_13  and  C_22
REMARK    8  A    between atoms: O_18  and  C_26
REMARK    9  A    between atoms: O_25  and  C_27
REMARK   10  A    between atoms: C_26  and  C_27
REMARK                            x       y       z     vdW  Elec       q    Type
REMARK                         _______ _______ _______ _____ _____    ______ ____
ROOT
ATOM      1  C   UNL     1     107.630 130.191 197.564  0.00  0.00    +0.000 C 
ATOM      2  C   UNL     1     106.936 129.208 197.383  0.00  0.00    +0.000 C 
ATOM      3  C   UNL     1     107.031 129.910 197.321  0.00  0.00    +0.000 C 
ATOM      4  C   UNL     1     108.127 129.784 197.862  0.00  0.00    +0.000 C 
ATOM      5  C   UNL     1     107.433 128.801 197.681  0.00  0.00    +0.000 C 
ATOM      6  N   UNL     1     108.029 129.094 197.920  0.00  0.00    +0.000 NA
ATOM      7  C   UNL     1     108.723 130.110 198.096  0.00  0.00    +0.000 C 
ATOM      8  C   UNL     1     107.325 128.098 197.736  0.00  0.00    +0.000 C 
ENDROOT
BRANCH   3   9
ATOM      9  C   UNL     1     106.530 130.319 197.021  0.00  0.00    +0.000 A 
ATOM     10  C   UNL     1     106.085 130.855 196.030  0.00  0.00    +0.000 A 
ATOM     11  C   UNL     1     106.568 130.460 196.319  0.00  0.00    +0.000 A 
ATOM     12  C   UNL     1     106.006 130.577 197.416  0.00  0.00    +0.000 A 
ATOM     13  C   UNL     1     105.538 131.129 196.426  0.00  0.00    +0.000 A 
ATOM     14  C   UNL     1     105.511 130.981 197.119  0.00  0.00    +0.000 A 
BRANCH  10  15
ATOM     15  N   UNL     1     106.115 131.005 195.315  0.00  0.00    +0.000 N 
ATOM     16  O   UNL     1     105.581 130.720 194.894  0.00  0.00    +0.000 OA
ATOM     17  O   UNL     1     106.638 131.407 195.058  0.00  0.00    +0.000 OA
ENDBRANCH  10  15
ENDBRANCH   3   9
BRANCH   1  18
ATOM     18  C   UNL     1     107.738 130.892 197.508  0.00  0.00    +0.000 C 
ATOM     19  O   UNL     1     107.891 131.174 196.872  0.00  0.00    +0.000 OA
BRANCH  18  20
ATOM     20  O   UNL     1     107.692 131.305 198.087  0.00  0.00    +0.000 OA
BRANCH  20  21
ATOM     21  C   UNL     1     108.082 131.913 198.118  0.00  0.00    +0.000 C 
ATOM     22  C   UNL     1     108.694 131.950 197.783  0.00  0.00    +0.000 C 
ATOM     23  C   UNL     1     107.843 132.473 198.488  0.00  0.00    +0.000 C 
ENDBRANCH  20  21
ENDBRANCH  18  20
ENDBRANCH   1  18
BRANCH   2  24
ATOM     24  C   UNL     1     106.352 128.909 197.150  0.00  0.00    +0.000 C 
ATOM     25  O   UNL     1     105.755 129.059 197.459  0.00  0.00    +0.000 OA
BRANCH  24  26
ATOM     26  O   UNL     1     106.377 128.452 196.596  0.00  0.00    +0.000 OA
BRANCH  26  27
ATOM     27  C   UNL     1     105.867 127.964 196.540  0.00  0.00    +0.000 C 
BRANCH  27  28
ATOM     28  C   UNL     1     105.877 127.517 195.982  0.00  0.00    +0.000 C 
BRANCH  28  29
ATOM     29  O   UNL     1     105.273 127.207 195.783  0.00  0.00    +0.000 OA
ATOM     30  C   UNL     1     105.279 126.737 195.271  0.00  0.00    +0.000 C 
ENDBRANCH  28  29
ENDBRANCH  27  28
ENDBRANCH  26  27
ENDBRANCH  24  26
ENDBRANCH   2  24
TORSDOF 10
ENDMDL
MODEL 7
REMARK VINA RESULT:      -9.0     35.307     36.388
REMARK  Name = 
REMARK  10 active torsions:
REMARK  status: ('A' for Active; 'I' for Inactive)
REMARK    1  A    between atoms: C_1  and  C_6
REMARK    2  A    between atoms: C_2  and  C_10
REMARK    3  A    between atoms: C_3  and  C_9
REMARK    4  A    between atoms: C_6  and  O_13
REMARK    5  A    between atoms: N_8  and  C_11
REMARK    6  A    between atoms: C_10  and  O_18
REMARK    7  A    between atoms: O_13  and  C_22
REMARK    8  A    between atoms: O_18  and  C_26
REMARK    9  A    between atoms: O_25  and  C_27
REMARK   10  A    between atoms: C_26  and  C_27
REMARK                            x       y       z     vdW  Elec       q    Type
REMARK                         _______ _______ _______ _____ _____    ______ ____
ROOT
ATOM      1  C   UNL     1     106.160 129.372 196.749  0.00  0.00    +0.000 C 
ATOM      2  C   UNL     1     107.162 130.023 196.979  0.00  0.00    +0.000 C 
ATOM      3  C   UNL     1     106.823 129.398 196.987  0.00  0.00    +0.000 C 
ATOM      4  C   UNL     1     105.838 129.954 196.506  0.00  0.00    +0.000 C 
ATOM      5  C   UNL     1     106.840 130.605 196.736  0.00  0.00    +0.000 C 
ATOM      6  N   UNL     1     106.176 130.566 196.500  0.00  0.00    +0.000 NA
ATOM      7  C   UNL     1     105.163 129.885 196.272  0.00  0.00    +0.000 C 
ATOM      8  C   UNL     1     107.192 131.226 196.734  0.00  0.00    +0.000 C 
ENDROOT
BRANCH   3   9
ATOM      9  C   UNL     1     107.147 128.812 197.232  0.00  0.00    +0.000 A 
ATOM     10  C   UNL     1     107.865 127.860 197.021  0.00  0.00    +0.000 A 
ATOM     11  C   UNL     1     107.553 128.425 196.786  0.00  0.00    +0.000 A 
ATOM     12  C   UNL     1     107.065 128.623 197.907  0.00  0.00    +0.000 A 
ATOM     13  C   UNL     1     107.790 127.652 197.716  0.00  0.00    +0.000 A 
ATOM     14  C   UNL     1     107.386 128.044 198.148  0.00  0.00    +0.000 A 
BRANCH  10  15
ATOM     15  N   UNL     1     108.281 127.458 196.574  0.00  0.00    +0.000 N 
ATOM     16  O   UNL     1     108.933 127.744 196.381  0.00  0.00    +0.000 OA
ATOM     17  O   UNL     1     108.052 126.827 196.348  0.00  0.00    +0.000 OA
ENDBRANCH  10  15
ENDBRANCH   3   9
BRANCH   1  18
ATOM     18  C   UNL     1     105.809 128.753 196.751  0.00  0.00    +0.000 C 
ATOM     19  O   UNL     1     105.683 128.424 197.370  0.00  0.00    +0.000 OA
BRANCH  18  20
ATOM     20  O   UNL     1     105.586 128.468 196.137  0.00  0.00    +0.000 OA
BRANCH  20  21
ATOM     21  C   UNL     1     105.017 128.022 196.141  0.00  0.00    +0.000 C 
ATOM     22  C   UNL     1     104.996 127.484 195.697  0.00  0.00    +0.000 C 
ATOM     23  C   UNL     1     104.480 128.132 196.595  0.00  0.00    +0.000 C 
ENDBRANCH  20  21
ENDBRANCH  18  20
ENDBRANCH   1  18
BRANCH   2  24
ATOM     24  C   UNL     1     107.817 130.072 197.210  0.00  0.00    +0.000 C 
ATOM     25  O   UNL     1     108.330 129.865 196.801  0.00  0.00    +0.000 OA
BRANCH  24  26
ATOM     26  O   UNL     1     107.949 130.335 197.865  0.00  0.00    +0.000 OA
BRANCH  26  27
ATOM     27  C   UNL     1     108.564 130.667 197.975  0.00  0.00    +0.000 C 
BRANCH  27  28
ATOM     28  C   UNL     1     108.692 130.950 198.620  0.00  0.00    +0.000 C 
BRANCH  28  29
ATOM     29  O   UNL     1     109.356 131.132 198.786  0.00  0.00    +0.000 OA
ATOM     30  C   UNL     1     109.486 131.440 199.395  0.00  0.00    +0.000 C 
ENDBRANCH  28  29
ENDBRANCH  27  28
ENDBRANCH  26  27
ENDBRANCH  24  26
ENDBRANCH   2  24
TORSDOF 10
ENDMDL
MODEL 8
REMARK VINA RESULT:      -9.0     35.659     36.823
REMARK  Name = 
REMARK  10 active torsions:
REMARK  status: ('A' for Active; 'I' for Inactive)
REMARK    1  A    between atoms: C_1  and  C_6
REMARK    2  A    between atoms: C_2  and  C_10
REMARK    3  A    between atoms: C_3  and  C_9
REMARK    4  A    between atoms: C_6  and  O_13
REMARK    5  A    between atoms: N_8  and  C_11
REMARK    6  A    between atoms: C_10  and  O_18
REMARK    7  A    between atoms: O_13  and  C_22
REMARK    8  A    between atoms: O_18  and  C_26
REMARK    9  A    between atoms: O_25  and  C_27
REMARK   10  A    between atoms: C_26  and  C_27
REMARK                            x       y       z     vdW  Elec       q    Type
REMARK                         _______ _______ _______ _____ _____    ______ ____
ROOT
ATOM      1  C   UNL     1     105.956 125.398 195.255  0.00  0.00    +0.000 C 
ATOM      2  C   UNL     1     106.343 124.518 194.509  0.00  0.00    +0.000 C 
ATOM      3  C   UNL     1     105.882 125.040 194.653  0.00  0.00    +0.000 C 
ATOM      4  C   UNL     1     106.477 125.243 195.708  0.00  0.00    +0.000 C 
ATOM      5  C   UNL     1     106.865 124.364 194.962  0.00  0.00    +0.000 C 
ATOM      6  N   UNL     1     106.929 124.729 195.562  0.00  0.00    +0.000 NA
ATOM      7  C   UNL     1     106.518 125.632 196.310  0.00  0.00    +0.000 C 
ATOM      8  C   UNL     1     107.321 123.838 194.806  0.00  0.00    +0.000 C 
ENDROOT
BRANCH   3   9
ATOM      9  C   UNL     1     105.357 125.195 194.196  0.00  0.00    +0.000 A 
ATOM     10  C   UNL     1     104.983 125.784 193.207  0.00  0.00    +0.000 A 
ATOM     11  C   UNL     1     105.489 125.634 193.646  0.00  0.00    +0.000 A 
ATOM     12  C   UNL     1     104.715 124.916 194.292  0.00  0.00    +0.000 A 
ATOM     13  C   UNL     1     104.316 125.504 193.293  0.00  0.00    +0.000 A 
ATOM     14  C   UNL     1     104.197 125.070 193.842  0.00  0.00    +0.000 A 
BRANCH  10  15
ATOM     15  N   UNL     1     105.109 126.232 192.641  0.00  0.00    +0.000 N 
ATOM     16  O   UNL     1     105.225 125.913 191.986  0.00  0.00    +0.000 OA
ATOM     17  O   UNL     1     105.114 126.933 192.738  0.00  0.00    +0.000 OA
ENDBRANCH  10  15
ENDBRANCH   3   9
BRANCH   1  18
ATOM     18  C   UNL     1     105.501 125.922 195.412  0.00  0.00    +0.000 C 
ATOM     19  O   UNL     1     104.809 125.774 195.491  0.00  0.00    +0.000 OA
BRANCH  18  20
ATOM     20  O   UNL     1     105.739 126.590 195.487  0.00  0.00    +0.000 OA
BRANCH  20  21
ATOM     21  C   UNL     1     105.387 127.043 195.925  0.00  0.00    +0.000 C 
ATOM     22  C   UNL     1     105.058 126.795 196.488  0.00  0.00    +0.000 C 
ATOM     23  C   UNL     1     105.375 127.741 195.783  0.00  0.00    +0.000 C 
ENDBRANCH  20  21
ENDBRANCH  18  20
ENDBRANCH   1  18
BRANCH   2  24
ATOM     24  C   UNL     1     106.289 124.152 193.920  0.00  0.00    +0.000 C 
ATOM     25  O   UNL     1     106.486 124.441 193.328  0.00  0.00    +0.000 OA
BRANCH  24  26
ATOM     26  O   UNL     1     106.031 123.481 193.936  0.00  0.00    +0.000 OA
BRANCH  26  27
ATOM     27  C   UNL     1     106.248 123.027 193.439  0.00  0.00    +0.000 C 
BRANCH  27  28
ATOM     28  C   UNL     1     105.986 122.361 193.441  0.00  0.00    +0.000 C 
BRANCH  28  29
ATOM     29  O   UNL     1     106.112 121.943 192.885  0.00  0.00    +0.000 OA
ATOM     30  C   UNL     1     105.991 121.260 192.932  0.00  0.00    +0.000 C 
ENDBRANCH  28  29
ENDBRANCH  27  28
ENDBRANCH  26  27
ENDBRANCH  24  26
ENDBRANCH   2  24
TORSDOF 10
ENDMDL
MODEL 9
REMARK VINA RESULT:      -8.9     36.492     37.373
REMARK  Name = 
REMARK  10 active torsions:
REMARK  status: ('A' for Active; 'I' for Inactive)
REMARK    1  A    between atoms: C_1  and  C_6
REMARK    2  A    between atoms: C_2  and  C_10
REMARK    3  A    between atoms: C_3  and  C_9
REMARK    4  A    between atoms: C_6  and  O_13
REMARK    5  A    between atoms: N_8  and  C_11
REMARK    6  A    between atoms: C_10  and  O_18
REMARK    7  A    between atoms: O_13  and  C_22
REMARK    8  A    between atoms: O_18  and  C_26
REMARK    9  A    between atoms: O_25  and  C_27
REMARK   10  A    between atoms: C_26  and  C_27
REMARK                            x       y       z     vdW  Elec       q    Type
REMARK                         _______ _______ _______ _____ _____    ______ ____
ROOT
ATOM      1  C   UNL     1     105.745 127.580 196.439  0.00  0.00    +0.000 C 
ATOM      2  C   UNL     1     105.920 126.638 195.688  0.00  0.00    +0.000 C 
ATOM      3  C   UNL     1     106.083 126.979 196.291  0.00  0.00    +0.000 C 
ATOM      4  C   UNL     1     105.254 127.839 195.999  0.00  0.00    +0.000 C 
ATOM      5  C   UNL     1     105.430 126.897 195.249  0.00  0.00    +0.000 C 
ATOM      6  N   UNL     1     105.098 127.499 195.408  0.00  0.00    +0.000 NA
ATOM      7  C   UNL     1     104.934 128.453 196.187  0.00  0.00    +0.000 C 
ATOM      8  C   UNL     1     105.276 126.544 194.648  0.00  0.00    +0.000 C 
ENDROOT
BRANCH   3   9
ATOM      9  C   UNL     1     106.578 126.719 196.733  0.00  0.00    +0.000 A 
ATOM     10  C   UNL     1     106.854 126.020 197.683  0.00  0.00    +0.000 A 
ATOM     11  C   UNL     1     106.378 126.272 197.256  0.00  0.00    +0.000 A 
ATOM     12  C   UNL     1     107.254 126.904 196.651  0.00  0.00    +0.000 A 
ATOM     13  C   UNL     1     107.556 126.202 197.610  0.00  0.00    +0.000 A 
ATOM     14  C   UNL     1     107.742 126.646 197.088  0.00  0.00    +0.000 A 
BRANCH  10  15
ATOM     15  N   UNL     1     106.661 125.563 198.220  0.00  0.00    +0.000 N 
ATOM     16  O   UNL     1     106.187 125.823 198.722  0.00  0.00    +0.000 OA
ATOM     17  O   UNL     1     106.927 124.907 198.241  0.00  0.00    +0.000 OA
ENDBRANCH  10  15
ENDBRANCH   3   9
BRANCH   1  18
ATOM     18  C   UNL     1     105.899 127.932 197.038  0.00  0.00    +0.000 C 
ATOM     19  O   UNL     1     105.659 127.683 197.661  0.00  0.00    +0.000 OA
BRANCH  18  20
ATOM     20  O   UNL     1     106.288 128.528 197.011  0.00  0.00    +0.000 OA
BRANCH  20  21
ATOM     21  C   UNL     1     106.187 129.039 197.511  0.00  0.00    +0.000 C 
ATOM     22  C   UNL     1     105.543 129.169 197.748  0.00  0.00    +0.000 C 
ATOM     23  C   UNL     1     106.740 129.410 197.761  0.00  0.00    +0.000 C 
ENDBRANCH  20  21
ENDBRANCH  18  20
ENDBRANCH   1  18
BRANCH   2  24
ATOM     24  C   UNL     1     106.242 126.043 195.522  0.00  0.00    +0.000 C 
ATOM     25  O   UNL     1     106.924 126.046 195.436  0.00  0.00    +0.000 OA
BRANCH  24  26
ATOM     26  O   UNL     1     105.861 125.439 195.443  0.00  0.00    +0.000 OA
BRANCH  26  27
ATOM     27  C   UNL     1     106.112 124.941 195.007  0.00  0.00    +0.000 C 
BRANCH  27  28
ATOM     28  C   UNL     1     105.732 124.341 194.915  0.00  0.00    +0.000 C 
BRANCH  28  29
ATOM     29  O   UNL     1     106.034 123.794 194.582  0.00  0.00    +0.000 OA
ATOM     30  C   UNL     1     105.636 123.320 194.266  0.00  0.00    +0.000 C 
ENDBRANCH  28  29
ENDBRANCH  27  28
ENDBRANCH  26  27
ENDBRANCH  24  26
ENDBRANCH   2  24
TORSDOF 10
ENDMDL
MODEL 10
REMARK VINA RESULT:      -8.8     34.017     36.140
REMARK  Name = 
REMARK  10 active torsions:
REMARK  status: ('A' for Active; 'I' for Inactive)
REMARK    1  A    between atoms: C_1  and  C_6
REMARK    2  A    between atoms: C_2  and  C_10
REMARK    3  A    between atoms: C_3  and  C_9
REMARK    4  A    between atoms: C_6  and  O_13
REMARK    5  A    between atoms: N_8  and  C_11
REMARK    6  A    between atoms: C_10  and  O_18
REMARK    7  A    between atoms: O_13  and  C_22
REMARK    8  A    between atoms: O_18  and  C_26
REMARK    9  A    between atoms: O_25  and  C_27
REMARK   10  A    between atoms: C_26  and  C_27
REMARK                            x       y       z     vdW  Elec       q    Type
REMARK                         _______ _______ _______ _____ _____    ______ ____
ROOT
ATOM      1  C   UNL     1     107.120 129.106 197.360  0.00  0.00    +0.000 C 
ATOM      2  C   UNL     1     107.462 130.250 197.596  0.00  0.00    +0.000 C 
ATOM      3  C   UNL     1     106.983 129.797 197.330  0.00  0.00    +0.000 C 
ATOM      4  C   UNL     1     107.721 128.868 197.648  0.00  0.00    +0.000 C 
ATOM      5  C   UNL     1     108.063 130.012 197.884  0.00  0.00    +0.000 C 
ATOM      6  N   UNL     1     108.189 129.318 197.908  0.00  0.00    +0.000 NA
ATOM      7  C   UNL     1     107.823 128.157 197.659  0.00  0.00    +0.000 C 
ATOM      8  C   UNL     1     108.535 130.477 198.147  0.00  0.00    +0.000 C 
ENDROOT
BRANCH   3   9
ATOM      9  C   UNL     1     106.378 130.038 197.039  0.00  0.00    +0.000 A 
ATOM     10  C   UNL     1     105.770 130.395 196.055  0.00  0.00    +0.000 A 
ATOM     11  C   UNL     1     106.353 130.163 196.335  0.00  0.00    +0.000 A 
ATOM     12  C   UNL     1     105.813 130.148 197.448  0.00  0.00    +0.000 A 
ATOM     13  C   UNL     1     105.179 130.514 196.465  0.00  0.00    +0.000 A 
ATOM     14  C   UNL     1     105.216 130.386 197.162  0.00  0.00    +0.000 A 
BRANCH  10  15
ATOM     15  N   UNL     1     105.735 130.526 195.336  0.00  0.00    +0.000 N 
ATOM     16  O   UNL     1     105.735 131.234 195.128  0.00  0.00    +0.000 OA
ATOM     17  O   UNL     1     105.703 129.988 194.878  0.00  0.00    +0.000 OA
ENDBRANCH  10  15
ENDBRANCH   3   9
BRANCH   1  18
ATOM     18  C   UNL     1     106.649 128.642 197.097  0.00  0.00    +0.000 C 
ATOM     19  O   UNL     1     106.576 128.578 196.392  0.00  0.00    +0.000 OA
BRANCH  18  20
ATOM     20  O   UNL     1     106.256 128.245 197.540  0.00  0.00    +0.000 OA
BRANCH  20  21
ATOM     21  C   UNL     1     106.026 127.596 197.321  0.00  0.00    +0.000 C 
ATOM     22  C   UNL     1     105.430 127.336 197.577  0.00  0.00    +0.000 C 
ATOM     23  C   UNL     1     106.404 127.223 196.848  0.00  0.00    +0.000 C 
ENDBRANCH  20  21
ENDBRANCH  18  20
ENDBRANCH   1  18
BRANCH   2  24
ATOM     24  C   UNL     1     107.347 130.937 197.577  0.00  0.00    +0.000 C 
ATOM     25  O   UNL     1     106.838 131.200 197.958  0.00  0.00    +0.000 OA
BRANCH  24  26
ATOM     26  O   UNL     1     107.756 131.359 197.163  0.00  0.00    +0.000 OA
BRANCH  26  27
ATOM     27  C   UNL     1     107.831 132.037 197.349  0.00  0.00    +0.000 C 
BRANCH  27  28
ATOM     28  C   UNL     1     108.194 132.475 196.915  0.00  0.00    +0.000 C 
BRANCH  28  29
ATOM     29  O   UNL     1     108.085 133.173 196.965  0.00  0.00    +0.000 OA
ATOM     30  C   UNL     1     108.349 133.598 196.483  0.00  0.00    +0.000 C 
ENDBRANCH  28  29
ENDBRANCH  27  28
ENDBRANCH  26  27
ENDBRANCH  24  26
ENDBRANCH   2  24
TORSDOF 10
ENDMDL
MODEL 11
REMARK VINA RESULT:      -8.7     29.154     31.490
REMARK  Name = 
REMARK  10 active torsions:
REMARK  status: ('A' for Active; 'I' for Inactive)
REMARK    1  A    between atoms: C_1  and  C_6
REMARK    2  A    between atoms: C_2  and  C_10
REMARK    3  A    between atoms: C_3  and  C_9
REMARK    4  A    between atoms: C_6  and  O_13
REMARK    5  A    between atoms: N_8  and  C_11
REMARK    6  A    between atoms: C_10  and  O_18
REMARK    7  A    between atoms: O_13  and  C_22
REMARK    8  A    between atoms: O_18  and  C_26
REMARK    9  A    between atoms: O_25  and  C_27
REMARK   10  A    between atoms: C_26  and  C_27
REMARK                            x       y       z     vdW  Elec       q    Type
REMARK                         _______ _______ _______ _____ _____    ______ ____
ROOT
ATOM      1  C   UNL     1     121.489 151.725 197.398  0.00  0.00    +0.000 C 
ATOM      2  C   UNL     1     120.553 151.981 198.133  0.00  0.00    +0.000 C 
ATOM      3  C   UNL     1     121.103 152.205 197.741  0.00  0.00    +0.000 C 
ATOM      4  C   UNL     1     121.334 151.035 197.442  0.00  0.00    +0.000 C 
ATOM      5  C   UNL     1     120.399 151.292 198.177  0.00  0.00    +0.000 C 
ATOM      6  N   UNL     1     120.793 150.821 197.829  0.00  0.00    +0.000 NA
ATOM      7  C   UNL     1     121.752 150.580 197.077  0.00  0.00    +0.000 C 
ATOM      8  C   UNL     1     119.845 151.081 198.573  0.00  0.00    +0.000 C 
ENDROOT
BRANCH   3   9
ATOM      9  C   UNL     1     121.259 152.899 197.697  0.00  0.00    +0.000 A 
ATOM     10  C   UNL     1     121.090 153.967 197.151  0.00  0.00    +0.000 A 
ATOM     11  C   UNL     1     120.940 153.298 197.194  0.00  0.00    +0.000 A 
ATOM     12  C   UNL     1     121.722 153.183 198.147  0.00  0.00    +0.000 A 
ATOM     13  C   UNL     1     121.567 154.274 197.609  0.00  0.00    +0.000 A 
ATOM     14  C   UNL     1     121.876 153.869 198.103  0.00  0.00    +0.000 A 
BRANCH  10  15
ATOM     15  N   UNL     1     120.771 154.383 196.641  0.00  0.00    +0.000 N 
ATOM     16  O   UNL     1     121.167 154.946 196.377  0.00  0.00    +0.000 OA
ATOM     17  O   UNL     1     120.113 154.236 196.424  0.00  0.00    +0.000 OA
ENDBRANCH  10  15
ENDBRANCH   3   9
BRANCH   1  18
ATOM     18  C   UNL     1     122.042 151.935 197.002  0.00  0.00    +0.000 C 
ATOM     19  O   UNL     1     122.584 152.278 197.311  0.00  0.00    +0.000 OA
BRANCH  18  20
ATOM     20  O   UNL     1     122.049 151.801 196.302  0.00  0.00    +0.000 OA
BRANCH  20  21
ATOM     21  C   UNL     1     122.683 151.760 195.957  0.00  0.00    +0.000 C 
ATOM     22  C   UNL     1     123.219 151.425 196.254  0.00  0.00    +0.000 C 
ATOM     23  C   UNL     1     122.762 152.061 195.317  0.00  0.00    +0.000 C 
ENDBRANCH  20  21
ENDBRANCH  18  20
ENDBRANCH   1  18
BRANCH   2  24
ATOM     24  C   UNL     1     120.159 152.438 198.480  0.00  0.00    +0.000 C 
ATOM     25  O   UNL     1     119.690 152.804 198.133  0.00  0.00    +0.000 OA
BRANCH  24  26
ATOM     26  O   UNL     1     120.244 152.522 199.188  0.00  0.00    +0.000 OA
BRANCH  26  27
ATOM     27  C   UNL     1     119.688 152.738 199.569  0.00  0.00    +0.000 C 
BRANCH  27  28
ATOM     28  C   UNL     1     119.767 152.828 200.274  0.00  0.00    +0.000 C 
BRANCH  28  29
ATOM     29  O   UNL     1     119.288 153.213 200.625  0.00  0.00    +0.000 OA
ATOM     30  C   UNL     1     119.345 153.291 201.313  0.00  0.00    +0.000 C 
ENDBRANCH  28  29
ENDBRANCH  27  28
ENDBRANCH  26  27
ENDBRANCH  24  26
ENDBRANCH   2  24
TORSDOF 10
ENDMDL
MODEL 12
REMARK VINA RESULT:      -8.6     34.305     36.877
REMARK  Name = 
REMARK  10 active torsions:
REMARK  status: ('A' for Active; 'I' for Inactive)
REMARK    1  A    between atoms: C_1  and  C_6
REMARK    2  A    between atoms: C_2  and  C_10
REMARK    3  A    between atoms: C_3  and  C_9
REMARK    4  A    between atoms: C_6  and  O_13
REMARK    5  A    between atoms: N_8  and  C_11
REMARK    6  A    between atoms: C_10  and  O_18
REMARK    7  A    between atoms: O_13  and  C_22
REMARK    8  A    between atoms: O_18  and  C_26
REMARK    9  A    between atoms: O_25  and  C_27
REMARK   10  A    between atoms: C_26  and  C_27
REMARK                            x       y       z     vdW  Elec       q    Type
REMARK                         _______ _______ _______ _____ _____    ______ ____
ROOT
ATOM      1  C   UNL     1     106.943 128.062 197.537  0.00  0.00    +0.000 C 
ATOM      2  C   UNL     1     106.670 129.188 197.166  0.00  0.00    +0.000 C 
ATOM      3  C   UNL     1     106.488 128.504 197.229  0.00  0.00    +0.000 C 
ATOM      4  C   UNL     1     107.567 128.293 197.779  0.00  0.00    +0.000 C 
ATOM      5  C   UNL     1     107.295 129.419 197.408  0.00  0.00    +0.000 C 
ATOM      6  N   UNL     1     107.741 128.967 197.714  0.00  0.00    +0.000 NA
ATOM      7  C   UNL     1     108.001 127.811 198.086  0.00  0.00    +0.000 C 
ATOM      8  C   UNL     1     107.465 130.108 197.338  0.00  0.00    +0.000 C 
ENDROOT
BRANCH   3   9
ATOM      9  C   UNL     1     105.860 128.272 196.986  0.00  0.00    +0.000 A 
ATOM     10  C   UNL     1     105.224 127.724 196.113  0.00  0.00    +0.000 A 
ATOM     11  C   UNL     1     105.830 127.948 196.347  0.00  0.00    +0.000 A 
ATOM     12  C   UNL     1     105.278 128.362 197.376  0.00  0.00    +0.000 A 
ATOM     13  C   UNL     1     104.615 127.811 196.504  0.00  0.00    +0.000 A 
ATOM     14  C   UNL     1     104.658 128.133 197.135  0.00  0.00    +0.000 A 
BRANCH  10  15
ATOM     15  N   UNL     1     105.182 127.393 195.462  0.00  0.00    +0.000 N 
ATOM     16  O   UNL     1     104.870 126.725 195.450  0.00  0.00    +0.000 OA
ATOM     17  O   UNL     1     105.435 127.714 194.883  0.00  0.00    +0.000 OA
ENDBRANCH  10  15
ENDBRANCH   3   9
BRANCH   1  18
ATOM     18  C   UNL     1     106.774 127.374 197.607  0.00  0.00    +0.000 C 
ATOM     19  O   UNL     1     106.806 126.946 197.039  0.00  0.00    +0.000 OA
BRANCH  18  20
ATOM     20  O   UNL     1     106.573 127.120 198.242  0.00  0.00    +0.000 OA
BRANCH  20  21
ATOM     21  C   UNL     1     106.716 126.431 198.406  0.00  0.00    +0.000 C 
ATOM     22  C   UNL     1     106.339 126.107 198.897  0.00  0.00    +0.000 C 
ATOM     23  C   UNL     1     107.238 126.083 198.070  0.00  0.00    +0.000 C 
ENDBRANCH  20  21
ENDBRANCH  18  20
ENDBRANCH   1  18
BRANCH   2  24
ATOM     24  C   UNL     1     106.237 129.642 196.866  0.00  0.00    +0.000 C 
ATOM     25  O   UNL     1     105.645 129.797 197.181  0.00  0.00    +0.000 OA
BRANCH  24  26
ATOM     26  O   UNL     1     106.409 129.942 196.236  0.00  0.00    +0.000 OA
BRANCH  26  27
ATOM     27  C   UNL     1     106.119 130.566 196.071  0.00  0.00    +0.000 C 
BRANCH  27  28
ATOM     28  C   UNL     1     106.305 130.881 195.456  0.00  0.00    +0.000 C 
BRANCH  28  29
ATOM     29  O   UNL     1     105.832 131.292 195.127  0.00  0.00    +0.000 OA
ATOM     30  C   UNL     1     106.004 131.605 194.531  0.00  0.00    +0.000 C 
ENDBRANCH  28  29
ENDBRANCH  27  28
ENDBRANCH  26  27
ENDBRANCH  24  26
ENDBRANCH   2  24
TORSDOF 10
ENDMDL
MODEL 13
REMARK VINA RESULT:      -8.6     21.326     22.844
REMARK  Name = 
REMARK  10 active torsions:
REMARK  status: ('A' for Active; 'I' for Inactive)
REMARK    1  A    between atoms: C_1  and  C_6
REMARK    2  A    between atoms: C_2  and  C_10
REMARK    3  A    between atoms: C_3  and  C_9
REMARK    4  A    between atoms: C_6  and  O_13
REMARK    5  A    between atoms: N_8  and  C_11
REMARK    6  A    between atoms: C_10  and  O_18
REMARK    7  A    between atoms: O_13  and  C_22
REMARK    8  A    between atoms: O_18  and  C_26
REMARK    9  A    between atoms: O_25  and  C_27
REMARK   10  A    between atoms: C_26  and  C_27
REMARK                            x       y       z     vdW  Elec       q    Type
REMARK                         _______ _______ _______ _____ _____    ______ ____
ROOT
ATOM      1  C   UNL     1     126.629 155.588 186.566  0.00  0.00    +0.000 C 
ATOM      2  C   UNL     1     126.539 156.795 186.441  0.00  0.00    +0.000 C 
ATOM      3  C   UNL     1     126.271 156.147 186.327  0.00  0.00    +0.000 C 
ATOM      4  C   UNL     1     127.242 155.669 186.911  0.00  0.00    +0.000 C 
ATOM      5  C   UNL     1     127.152 156.877 186.786  0.00  0.00    +0.000 C 
ATOM      6  N   UNL     1     127.501 156.310 187.020  0.00  0.00    +0.000 NA
ATOM      7  C   UNL     1     127.574 155.076 187.138  0.00  0.00    +0.000 C 
ATOM      8  C   UNL     1     127.410 157.533 186.893  0.00  0.00    +0.000 C 
ENDROOT
BRANCH   3   9
ATOM      9  C   UNL     1     125.654 156.065 185.980  0.00  0.00    +0.000 A 
ATOM     10  C   UNL     1     124.446 155.994 186.014  0.00  0.00    +0.000 A 
ATOM     11  C   UNL     1     125.040 156.073 186.349  0.00  0.00    +0.000 A 
ATOM     12  C   UNL     1     125.656 155.977 185.279  0.00  0.00    +0.000 A 
ATOM     13  C   UNL     1     124.432 155.902 185.291  0.00  0.00    +0.000 A 
ATOM     14  C   UNL     1     125.047 155.896 184.936  0.00  0.00    +0.000 A 
BRANCH  10  15
ATOM     15  N   UNL     1     123.813 156.001 186.382  0.00  0.00    +0.000 N 
ATOM     16  O   UNL     1     123.303 156.482 186.153  0.00  0.00    +0.000 OA
ATOM     17  O   UNL     1     123.715 155.562 186.928  0.00  0.00    +0.000 OA
ENDBRANCH  10  15
ENDBRANCH   3   9
BRANCH   1  18
ATOM     18  C   UNL     1     126.372 154.933 186.459  0.00  0.00    +0.000 C 
ATOM     19  O   UNL     1     126.266 154.702 185.794  0.00  0.00    +0.000 OA
BRANCH  18  20
ATOM     20  O   UNL     1     126.223 154.515 187.017  0.00  0.00    +0.000 OA
BRANCH  20  21
ATOM     21  C   UNL     1     126.233 153.797 186.932  0.00  0.00    +0.000 C 
ATOM     22  C   UNL     1     125.789 153.398 187.294  0.00  0.00    +0.000 C 
ATOM     23  C   UNL     1     126.695 153.497 186.480  0.00  0.00    +0.000 C 
ENDBRANCH  20  21
ENDBRANCH  18  20
ENDBRANCH   1  18
BRANCH   2  24
ATOM     24  C   UNL     1     126.203 157.361 186.213  0.00  0.00    +0.000 C 
ATOM     25  O   UNL     1     126.148 157.466 185.536  0.00  0.00    +0.000 OA
BRANCH  24  26
ATOM     26  O   UNL     1     125.919 157.824 186.684  0.00  0.00    +0.000 OA
BRANCH  26  27
ATOM     27  C   UNL     1     125.821 158.493 186.477  0.00  0.00    +0.000 C 
BRANCH  27  28
ATOM     28  C   UNL     1     125.521 158.955 186.934  0.00  0.00    +0.000 C 
BRANCH  28  29
ATOM     29  O   UNL     1     125.180 159.518 186.675  0.00  0.00    +0.000 OA
ATOM     30  C   UNL     1     124.838 159.943 187.107  0.00  0.00    +0.000 C 
ENDBRANCH  28  29
ENDBRANCH  27  28
ENDBRANCH  26  27
ENDBRANCH  24  26
ENDBRANCH   2  24
TORSDOF 10
ENDMDL
MODEL 14
REMARK VINA RESULT:      -8.4     29.392     31.159
REMARK  Name = 
REMARK  10 active torsions:
REMARK  status: ('A' for Active; 'I' for Inactive)
REMARK    1  A    between atoms: C_1  and  C_6
REMARK    2  A    between atoms: C_2  and  C_10
REMARK    3  A    between atoms: C_3  and  C_9
REMARK    4  A    between atoms: C_6  and  O_13
REMARK    5  A    between atoms: N_8  and  C_11
REMARK    6  A    between atoms: C_10  and  O_18
REMARK    7  A    between atoms: O_13  and  C_22
REMARK    8  A    between atoms: O_18  and  C_26
REMARK    9  A    between atoms: O_25  and  C_27
REMARK   10  A    between atoms: C_26  and  C_27
REMARK                            x       y       z     vdW  Elec       q    Type
REMARK                         _______ _______ _______ _____ _____    ______ ____
ROOT
ATOM      1  C   UNL     1     121.828 152.268 196.791  0.00  0.00    +0.000 C 
ATOM      2  C   UNL     1     121.282 153.332 197.015  0.00  0.00    +0.000 C 
ATOM      3  C   UNL     1     121.396 152.654 197.194  0.00  0.00    +0.000 C 
ATOM      4  C   UNL     1     122.141 152.549 196.222  0.00  0.00    +0.000 C 
ATOM      5  C   UNL     1     121.595 153.613 196.446  0.00  0.00    +0.000 C 
ATOM      6  N   UNL     1     122.025 153.217 196.051  0.00  0.00    +0.000 NA
ATOM      7  C   UNL     1     122.573 152.122 195.839  0.00  0.00    +0.000 C 
ATOM      8  C   UNL     1     121.472 154.295 196.278  0.00  0.00    +0.000 C 
ENDROOT
BRANCH   3   9
ATOM      9  C   UNL     1     121.081 152.371 197.767  0.00  0.00    +0.000 A 
ATOM     10  C   UNL     1     120.121 151.818 198.256  0.00  0.00    +0.000 A 
ATOM     11  C   UNL     1     120.425 152.090 197.703  0.00  0.00    +0.000 A 
ATOM     12  C   UNL     1     121.417 152.372 198.388  0.00  0.00    +0.000 A 
ATOM     13  C   UNL     1     120.456 151.811 198.903  0.00  0.00    +0.000 A 
ATOM     14  C   UNL     1     121.106 152.093 198.954  0.00  0.00    +0.000 A 
BRANCH  10  15
ATOM     15  N   UNL     1     119.451 151.529 198.201  0.00  0.00    +0.000 N 
ATOM     16  O   UNL     1     119.376 150.825 198.410  0.00  0.00    +0.000 OA
ATOM     17  O   UNL     1     118.914 151.920 197.957  0.00  0.00    +0.000 OA
ENDBRANCH  10  15
ENDBRANCH   3   9
BRANCH   1  18
ATOM     18  C   UNL     1     121.951 151.587 196.959  0.00  0.00    +0.000 C 
ATOM     19  O   UNL     1     122.238 151.428 197.591  0.00  0.00    +0.000 OA
BRANCH  18  20
ATOM     20  O   UNL     1     121.788 151.072 196.495  0.00  0.00    +0.000 OA
BRANCH  20  21
ATOM     21  C   UNL     1     122.157 150.451 196.513  0.00  0.00    +0.000 C 
ATOM     22  C   UNL     1     122.843 150.459 196.640  0.00  0.00    +0.000 C 
ATOM     23  C   UNL     1     121.822 149.832 196.400  0.00  0.00    +0.000 C 
ENDBRANCH  20  21
ENDBRANCH  18  20
ENDBRANCH   1  18
BRANCH   2  24
ATOM     24  C   UNL     1     120.860 153.731 197.399  0.00  0.00    +0.000 C 
ATOM     25  O   UNL     1     120.179 153.663 197.325  0.00  0.00    +0.000 OA
BRANCH  24  26
ATOM     26  O   UNL     1     121.136 154.206 197.862  0.00  0.00    +0.000 OA
BRANCH  26  27
ATOM     27  C   UNL     1     120.757 154.784 198.014  0.00  0.00    +0.000 C 
BRANCH  27  28
ATOM     28  C   UNL     1     121.023 155.258 198.480  0.00  0.00    +0.000 C 
BRANCH  28  29
ATOM     29  O   UNL     1     120.583 155.721 198.785  0.00  0.00    +0.000 OA
ATOM     30  C   UNL     1     120.835 156.201 199.220  0.00  0.00    +0.000 C 
ENDBRANCH  28  29
ENDBRANCH  27  28
ENDBRANCH  26  27
ENDBRANCH  24  26
ENDBRANCH   2  24
TORSDOF 10
ENDMDL
MODEL 15
REMARK VINA RESULT:      -8.2     48.140     49.558
REMARK  Name = 
REMARK  10 active torsions:
REMARK  status: ('A' for Active; 'I' for Inactive)
REMARK    1  A    between atoms: C_1  and  C_6
REMARK    2  A    between atoms: C_2  and  C_10
REMARK    3  A    between atoms: C_3  and  C_9
REMARK    4  A    between atoms: C_6  and  O_13
REMARK    5  A    between atoms: N_8  and  C_11
REMARK    6  A    between atoms: C_10  and  O_18
REMARK    7  A    between atoms: O_13  and  C_22
REMARK    8  A    between atoms: O_18  and  C_26
REMARK    9  A    between atoms: O_25  and  C_27
REMARK   10  A    between atoms: C_26  and  C_27
REMARK                            x       y       z     vdW  Elec       q    Type
REMARK                         _______ _______ _______ _____ _____    ______ ____
ROOT
ATOM      1  C   UNL     1     121.501 132.595 120.347  0.00  0.00    +0.000 C 
ATOM      2  C   UNL     1     120.709 133.329 119.785  0.00  0.00    +0.000 C 
ATOM      3  C   UNL     1     121.321 132.967 119.776  0.00  0.00    +0.000 C 
ATOM      4  C   UNL     1     121.083 132.581 120.918  0.00  0.00    +0.000 C 
ATOM      5  C   UNL     1     120.291 133.315 120.357  0.00  0.00    +0.000 C 
ATOM      6  N   UNL     1     120.482 132.938 120.922  0.00  0.00    +0.000 NA
ATOM      7  C   UNL     1     121.302 132.190 121.478  0.00  0.00    +0.000 C 
ATOM      8  C   UNL     1     119.680 133.682 120.353  0.00  0.00    +0.000 C 
ENDROOT
BRANCH   3   9
ATOM      9  C   UNL     1     121.742 132.982 119.200  0.00  0.00    +0.000 A 
ATOM     10  C   UNL     1     122.656 133.498 118.597  0.00  0.00    +0.000 A 
ATOM     11  C   UNL     1     122.250 133.484 119.151  0.00  0.00    +0.000 A 
ATOM     12  C   UNL     1     121.653 132.503 118.690  0.00  0.00    +0.000 A 
ATOM     13  C   UNL     1     122.576 133.010 118.061  0.00  0.00    +0.000 A 
ATOM     14  C   UNL     1     122.069 132.517 118.122  0.00  0.00    +0.000 A 
BRANCH  10  15
ATOM     15  N   UNL     1     123.178 134.008 118.537  0.00  0.00    +0.000 N 
ATOM     16  O   UNL     1     123.259 134.321 117.874  0.00  0.00    +0.000 OA
ATOM     17  O   UNL     1     123.574 134.178 119.098  0.00  0.00    +0.000 OA
ENDBRANCH  10  15
ENDBRANCH   3   9
BRANCH   1  18
ATOM     18  C   UNL     1     122.111 132.228 120.350  0.00  0.00    +0.000 C 
ATOM     19  O   UNL     1     122.730 132.578 120.379  0.00  0.00    +0.000 OA
BRANCH  18  20
ATOM     20  O   UNL     1     122.098 131.516 120.325  0.00  0.00    +0.000 OA
BRANCH  20  21
ATOM     21  C   UNL     1     122.643 131.142 120.616  0.00  0.00    +0.000 C 
ATOM     22  C   UNL     1     122.855 130.548 120.318  0.00  0.00    +0.000 C 
ATOM     23  C   UNL     1     122.964 131.379 121.206  0.00  0.00    +0.000 C 
ENDBRANCH  20  21
ENDBRANCH  18  20
ENDBRANCH   1  18
BRANCH   2  24
ATOM     24  C   UNL     1     120.512 133.703 119.233  0.00  0.00    +0.000 C 
ATOM     25  O   UNL     1     120.333 133.375 118.655  0.00  0.00    +0.000 OA
BRANCH  24  26
ATOM     26  O   UNL     1     120.498 134.421 119.270  0.00  0.00    +0.000 OA
BRANCH  26  27
ATOM     27  C   UNL     1     120.045 134.769 118.852  0.00  0.00    +0.000 C 
BRANCH  27  28
ATOM     28  C   UNL     1     120.026 135.484 118.885  0.00  0.00    +0.000 C 
BRANCH  28  29
ATOM     29  O   UNL     1     119.747 135.842 118.342  0.00  0.00    +0.000 OA
ATOM     30  C   UNL     1     119.755 136.537 118.348  0.00  0.00    +0.000 C 
ENDBRANCH  28  29
ENDBRANCH  27  28
ENDBRANCH  26  27
ENDBRANCH  24  26
ENDBRANCH   2  24
TORSDOF 10
ENDMDL
MODEL 16
REMARK VINA RESULT:      -8.1     48.647     49.527
REMARK  Name = 
REMARK  10 active torsions:
REMARK  status: ('A' for Active; 'I' for Inactive)
REMARK    1  A    between atoms: C_1  and  C_6
REMARK    2  A    between atoms: C_2  and  C_10
REMARK    3  A    between atoms: C_3  and  C_9
REMARK    4  A    between atoms: C_6  and  O_13
REMARK    5  A    between atoms: N_8  and  C_11
REMARK    6  A    between atoms: C_10  and  O_18
REMARK    7  A    between atoms: O_13  and  C_22
REMARK    8  A    between atoms: O_18  and  C_26
REMARK    9  A    between atoms: O_25  and  C_27
REMARK   10  A    between atoms: C_26  and  C_27
REMARK                            x       y       z     vdW  Elec       q    Type
REMARK                         _______ _______ _______ _____ _____    ______ ____
ROOT
ATOM      1  C   UNL     1     100.197 137.382 124.453  0.00  0.00    +0.000 C 
ATOM      2  C   UNL     1     101.030 138.268 124.510  0.00  0.00    +0.000 C 
ATOM      3  C   UNL     1     100.361 138.049 124.612  0.00  0.00    +0.000 C 
ATOM      4  C   UNL     1     100.686 136.939 124.197  0.00  0.00    +0.000 C 
ATOM      5  C   UNL     1     101.519 137.824 124.254  0.00  0.00    +0.000 C 
ATOM      6  N   UNL     1     101.342 137.159 124.099  0.00  0.00    +0.000 NA
ATOM      7  C   UNL     1     100.478 136.268 124.048  0.00  0.00    +0.000 C 
ATOM      8  C   UNL     1     102.186 138.056 124.156  0.00  0.00    +0.000 C 
ENDROOT
BRANCH   3   9
ATOM      9  C   UNL     1      99.868 138.496 124.870  0.00  0.00    +0.000 A 
ATOM     10  C   UNL     1      98.987 139.299 124.662  0.00  0.00    +0.000 A 
ATOM     11  C   UNL     1      99.461 138.869 124.413  0.00  0.00    +0.000 A 
ATOM     12  C   UNL     1      99.789 138.564 125.568  0.00  0.00    +0.000 A 
ATOM     13  C   UNL     1      98.893 139.380 125.380  0.00  0.00    +0.000 A 
ATOM     14  C   UNL     1      99.302 139.005 125.822  0.00  0.00    +0.000 A 
BRANCH  10  15
ATOM     15  N   UNL     1      98.566 139.685 124.204  0.00  0.00    +0.000 N 
ATOM     16  O   UNL     1      98.563 140.417 124.295  0.00  0.00    +0.000 OA
ATOM     17  O   UNL     1      98.188 139.354 123.706  0.00  0.00    +0.000 OA
ENDBRANCH  10  15
ENDBRANCH   3   9
BRANCH   1  18
ATOM     18  C   UNL     1      99.531 137.150 124.551  0.00  0.00    +0.000 C 
ATOM     19  O   UNL     1      99.013 137.380 124.119  0.00  0.00    +0.000 OA
BRANCH  18  20
ATOM     20  O   UNL     1      99.388 136.692 125.077  0.00  0.00    +0.000 OA
BRANCH  20  21
ATOM     21  C   UNL     1      98.833 136.235 125.006  0.00  0.00    +0.000 C 
ATOM     22  C   UNL     1      98.696 135.949 124.383  0.00  0.00    +0.000 C 
ATOM     23  C   UNL     1      98.426 136.076 125.568  0.00  0.00    +0.000 C 
ENDBRANCH  20  21
ENDBRANCH  18  20
ENDBRANCH   1  18
BRANCH   2  24
ATOM     24  C   UNL     1     101.214 138.922 124.660  0.00  0.00    +0.000 C 
ATOM     25  O   UNL     1     101.221 139.123 125.318  0.00  0.00    +0.000 OA
BRANCH  24  26
ATOM     26  O   UNL     1     101.392 139.376 124.132  0.00  0.00    +0.000 OA
BRANCH  26  27
ATOM     27  C   UNL     1     101.817 139.920 124.287  0.00  0.00    +0.000 C 
BRANCH  27  28
ATOM     28  C   UNL     1     101.998 140.376 123.767  0.00  0.00    +0.000 C 
BRANCH  28  29
ATOM     29  O   UNL     1     102.193 141.033 123.942  0.00  0.00    +0.000 OA
ATOM     30  C   UNL     1     102.432 141.464 123.452  0.00  0.00    +0.000 C 
ENDBRANCH  28  29
ENDBRANCH  27  28
ENDBRANCH  26  27
ENDBRANCH  24  26
ENDBRANCH   2  24
TORSDOF 10
ENDMDL
MODEL 17
REMARK VINA RESULT:      -8.1     26.210     27.492
REMARK  Name = 
REMARK  10 active torsions:
REMARK  status: ('A' for Active; 'I' for Inactive)
REMARK    1  A    between atoms: C_1  and  C_6
REMARK    2  A    between atoms: C_2  and  C_10
REMARK    3  A    between atoms: C_3  and  C_9
REMARK    4  A    between atoms: C_6  and  O_13
REMARK    5  A    between atoms: N_8  and  C_11
REMARK    6  A    between atoms: C_10  and  O_18
REMARK    7  A    between atoms: O_13  and  C_22
REMARK    8  A    between atoms: O_18  and  C_26
REMARK    9  A    between atoms: O_25  and  C_27
REMARK   10  A    between atoms: C_26  and  C_27
REMARK                            x       y       z     vdW  Elec       q    Type
REMARK                         _______ _______ _______ _____ _____    ______ ____
ROOT
ATOM      1  C   UNL     1     144.726 131.341 179.954  0.00  0.00    +0.000 C 
ATOM      2  C   UNL     1     144.201 130.808 178.994  0.00  0.00    +0.000 C 
ATOM      3  C   UNL     1     144.786 131.057 179.311  0.00  0.00    +0.000 C 
ATOM      4  C   UNL     1     144.097 131.379 180.277  0.00  0.00    +0.000 C 
ATOM      5  C   UNL     1     143.572 130.846 179.318  0.00  0.00    +0.000 C 
ATOM      6  N   UNL     1     143.524 131.133 179.960  0.00  0.00    +0.000 NA
ATOM      7  C   UNL     1     144.079 131.676 180.930  0.00  0.00    +0.000 C 
ATOM      8  C   UNL     1     142.992 130.592 178.988  0.00  0.00    +0.000 C 
ENDROOT
BRANCH   3   9
ATOM      9  C   UNL     1     145.419 131.019 178.986  0.00  0.00    +0.000 A 
ATOM     10  C   UNL     1     146.234 131.517 178.242  0.00  0.00    +0.000 A 
ATOM     11  C   UNL     1     145.624 131.554 178.555  0.00  0.00    +0.000 A 
ATOM     12  C   UNL     1     145.834 130.458 179.091  0.00  0.00    +0.000 A 
ATOM     13  C   UNL     1     146.673 130.944 178.341  0.00  0.00    +0.000 A 
ATOM     14  C   UNL     1     146.459 130.421 178.770  0.00  0.00    +0.000 A 
BRANCH  10  15
ATOM     15  N   UNL     1     146.453 132.058 177.800  0.00  0.00    +0.000 N 
ATOM     16  O   UNL     1     147.176 132.205 177.788  0.00  0.00    +0.000 OA
ATOM     17  O   UNL     1     145.979 132.412 177.411  0.00  0.00    +0.000 OA
ENDBRANCH  10  15
ENDBRANCH   3   9
BRANCH   1  18
ATOM     18  C   UNL     1     145.304 131.595 180.283  0.00  0.00    +0.000 C 
ATOM     19  O   UNL     1     145.837 131.151 180.445  0.00  0.00    +0.000 OA
BRANCH  18  20
ATOM     20  O   UNL     1     145.346 132.287 180.447  0.00  0.00    +0.000 OA
BRANCH  20  21
ATOM     21  C   UNL     1     145.758 132.493 181.003  0.00  0.00    +0.000 C 
ATOM     22  C   UNL     1     145.845 132.066 181.548  0.00  0.00    +0.000 C 
ATOM     23  C   UNL     1     146.075 133.131 180.996  0.00  0.00    +0.000 C 
ENDBRANCH  20  21
ENDBRANCH  18  20
ENDBRANCH   1  18
BRANCH   2  24
ATOM     24  C   UNL     1     144.237 130.523 178.360  0.00  0.00    +0.000 C 
ATOM     25  O   UNL     1     144.282 130.936 177.812  0.00  0.00    +0.000 OA
BRANCH  24  26
ATOM     26  O   UNL     1     144.228 129.809 178.286  0.00  0.00    +0.000 OA
BRANCH  26  27
ATOM     27  C   UNL     1     143.986 129.539 177.678  0.00  0.00    +0.000 C 
BRANCH  27  28
ATOM     28  C   UNL     1     143.958 128.828 177.603  0.00  0.00    +0.000 C 
BRANCH  28  29
ATOM     29  O   UNL     1     143.961 128.553 176.951  0.00  0.00    +0.000 OA
ATOM     30  C   UNL     1     143.983 127.863 176.868  0.00  0.00    +0.000 C 
ENDBRANCH  28  29
ENDBRANCH  27  28
ENDBRANCH  26  27
ENDBRANCH  24  26
ENDBRANCH   2  24
TORSDOF 10
ENDMDL
MODEL 18
REMARK VINA RESULT:      -7.9     35.074     36.309
REMARK  Name = 
REMARK  10 active torsions:
REMARK  status: ('A' for Active; 'I' for Inactive)
REMARK    1  A    between atoms: C_1  and  C_6
REMARK    2  A    between atoms: C_2  and  C_10
REMARK    3  A    between atoms: C_3  and  C_9
REMARK    4  A    between atoms: C_6  and  O_13
REMARK    5  A    between atoms: N_8  and  C_11
REMARK    6  A    between atoms: C_10  and  O_18
REMARK    7  A    between atoms: O_13  and  C_22
REMARK    8  A    between atoms: O_18  and  C_26
REMARK    9  A    between atoms: O_25  and  C_27
REMARK   10  A    between atoms: C_26  and  C_27
REMARK                            x       y       z     vdW  Elec       q    Type
REMARK                         _______ _______ _______ _____ _____    ______ ____
ROOT
ATOM      1  C   UNL     1     106.691 122.264 191.763  0.00  0.00    +0.000 C 
ATOM      2  C   UNL     1     106.647 121.544 190.783  0.00  0.00    +0.000 C 
ATOM      3  C   UNL     1     106.694 121.615 191.489  0.00  0.00    +0.000 C 
ATOM      4  C   UNL     1     106.643 122.835 191.347  0.00  0.00    +0.000 C 
ATOM      5  C   UNL     1     106.599 122.115 190.366  0.00  0.00    +0.000 C 
ATOM      6  N   UNL     1     106.598 122.760 190.653  0.00  0.00    +0.000 NA
ATOM      7  C   UNL     1     106.644 123.477 191.665  0.00  0.00    +0.000 C 
ATOM      8  C   UNL     1     106.553 122.030 189.660  0.00  0.00    +0.000 C 
ENDROOT
BRANCH   3   9
ATOM      9  C   UNL     1     106.742 121.041 191.909  0.00  0.00    +0.000 A 
ATOM     10  C   UNL     1     107.433 120.211 192.457  0.00  0.00    +0.000 A 
ATOM     11  C   UNL     1     107.387 120.765 192.052  0.00  0.00    +0.000 A 
ATOM     12  C   UNL     1     106.156 120.753 192.177  0.00  0.00    +0.000 A 
ATOM     13  C   UNL     1     106.837 119.903 192.740  0.00  0.00    +0.000 A 
ATOM     14  C   UNL     1     106.203 120.186 192.592  0.00  0.00    +0.000 A 
BRANCH  10  15
ATOM     15  N   UNL     1     108.088 119.922 192.609  0.00  0.00    +0.000 N 
ATOM     16  O   UNL     1     108.165 119.198 192.491  0.00  0.00    +0.000 OA
ATOM     17  O   UNL     1     108.609 120.332 192.856  0.00  0.00    +0.000 OA
ENDBRANCH  10  15
ENDBRANCH   3   9
BRANCH   1  18
ATOM     18  C   UNL     1     106.737 122.349 192.469  0.00  0.00    +0.000 C 
ATOM     19  O   UNL     1     106.228 122.081 192.888  0.00  0.00    +0.000 OA
BRANCH  18  20
ATOM     20  O   UNL     1     107.290 122.701 192.749  0.00  0.00    +0.000 OA
BRANCH  20  21
ATOM     21  C   UNL     1     107.203 123.054 193.374  0.00  0.00    +0.000 C 
ATOM     22  C   UNL     1     106.567 123.267 193.566  0.00  0.00    +0.000 C 
ATOM     23  C   UNL     1     107.764 123.183 193.793  0.00  0.00    +0.000 C 
ENDBRANCH  20  21
ENDBRANCH  18  20
ENDBRANCH   1  18
BRANCH   2  24
ATOM     24  C   UNL     1     106.648 120.913 190.491  0.00  0.00    +0.000 C 
ATOM     25  O   UNL     1     106.116 120.492 190.606  0.00  0.00    +0.000 OA
BRANCH  24  26
ATOM     26  O   UNL     1     107.199 120.708 190.078  0.00  0.00    +0.000 OA
BRANCH  26  27
ATOM     27  C   UNL     1     107.081 120.217 189.582  0.00  0.00    +0.000 C 
BRANCH  27  28
ATOM     28  C   UNL     1     107.628 119.997 189.178  0.00  0.00    +0.000 C 
BRANCH  28  29
ATOM     29  O   UNL     1     107.589 119.363 188.866  0.00  0.00    +0.000 OA
ATOM     30  C   UNL     1     108.123 119.131 188.486  0.00  0.00    +0.000 C 
ENDBRANCH  28  29
ENDBRANCH  27  28
ENDBRANCH  26  27
ENDBRANCH  24  26
ENDBRANCH   2  24
TORSDOF 10
ENDMDL
MODEL 19
REMARK VINA RESULT:      -7.8     48.829     50.095
REMARK  Name = 
REMARK  10 active torsions:
REMARK  status: ('A' for Active; 'I' for Inactive)
REMARK    1  A    between atoms: C_1  and  C_6
REMARK    2  A    between atoms: C_2  and  C_10
REMARK    3  A    between atoms: C_3  and  C_9
REMARK    4  A    between atoms: C_6  and  O_13
REMARK    5  A    between atoms: N_8  and  C_11
REMARK    6  A    between atoms: C_10  and  O_18
REMARK    7  A    between atoms: O_13  and  C_22
REMARK    8  A    between atoms: O_18  and  C_26
REMARK    9  A    between atoms: O_25  and  C_27
REMARK   10  A    between atoms: C_26  and  C_27
REMARK                            x       y       z     vdW  Elec       q    Type
REMARK                         _______ _______ _______ _____ _____    ______ ____
ROOT
ATOM      1  C   UNL     1     122.184 133.852 118.495  0.00  0.00    +0.000 C 
ATOM      2  C   UNL     1     121.934 135.040 118.572  0.00  0.00    +0.000 C 
ATOM      3  C   UNL     1     121.786 134.370 118.759  0.00  0.00    +0.000 C 
ATOM      4  C   UNL     1     122.718 133.993 118.052  0.00  0.00    +0.000 C 
ATOM      5  C   UNL     1     122.468 135.181 118.130  0.00  0.00    +0.000 C 
ATOM      6  N   UNL     1     122.859 134.654 117.871  0.00  0.00    +0.000 NA
ATOM      7  C   UNL     1     123.098 133.437 117.806  0.00  0.00    +0.000 C 
ATOM      8  C   UNL     1     122.605 135.858 117.950  0.00  0.00    +0.000 C 
ENDROOT
BRANCH   3   9
ATOM      9  C   UNL     1     121.248 134.228 119.205  0.00  0.00    +0.000 A 
ATOM     10  C   UNL     1     120.078 133.960 119.366  0.00  0.00    +0.000 A 
ATOM     11  C   UNL     1     120.597 134.097 118.937  0.00  0.00    +0.000 A 
ATOM     12  C   UNL     1     121.363 134.219 119.901  0.00  0.00    +0.000 A 
ATOM     13  C   UNL     1     120.182 133.946 120.087  0.00  0.00    +0.000 A 
ATOM     14  C   UNL     1     120.832 134.078 120.341  0.00  0.00    +0.000 A 
BRANCH  10  15
ATOM     15  N   UNL     1     119.410 133.824 119.102  0.00  0.00    +0.000 N 
ATOM     16  O   UNL     1     118.840 134.081 119.495  0.00  0.00    +0.000 OA
ATOM     17  O   UNL     1     119.332 133.463 118.498  0.00  0.00    +0.000 OA
ENDBRANCH  10  15
ENDBRANCH   3   9
BRANCH   1  18
ATOM     18  C   UNL     1     122.047 133.176 118.674  0.00  0.00    +0.000 C 
ATOM     19  O   UNL     1     121.472 132.853 118.408  0.00  0.00    +0.000 OA
BRANCH  18  20
ATOM     20  O   UNL     1     122.485 132.831 119.117  0.00  0.00    +0.000 OA
BRANCH  20  21
ATOM     21  C   UNL     1     122.543 132.112 119.067  0.00  0.00    +0.000 C 
ATOM     22  C   UNL     1     122.504 131.804 118.441  0.00  0.00    +0.000 C 
ATOM     23  C   UNL     1     122.639 131.719 119.653  0.00  0.00    +0.000 C 
ENDBRANCH  20  21
ENDBRANCH  18  20
ENDBRANCH   1  18
BRANCH   2  24
ATOM     24  C   UNL     1     121.554 135.568 118.821  0.00  0.00    +0.000 C 
ATOM     25  O   UNL     1     121.595 135.720 119.491  0.00  0.00    +0.000 OA
BRANCH  24  26
ATOM     26  O   UNL     1     121.128 135.944 118.381  0.00  0.00    +0.000 OA
BRANCH  26  27
ATOM     27  C   UNL     1     120.964 136.608 118.561  0.00  0.00    +0.000 C 
BRANCH  27  28
ATOM     28  C   UNL     1     120.520 136.980 118.141  0.00  0.00    +0.000 C 
BRANCH  28  29
ATOM     29  O   UNL     1     120.155 137.518 118.421  0.00  0.00    +0.000 OA
ATOM     30  C   UNL     1     119.764 137.920 118.011  0.00  0.00    +0.000 C 
ENDBRANCH  28  29
ENDBRANCH  27  28
ENDBRANCH  26  27
ENDBRANCH  24  26
ENDBRANCH   2  24
TORSDOF 10
ENDMDL
MODEL 20
REMARK VINA RESULT:      -7.7     76.829     78.314
REMARK  Name = 
REMARK  10 active torsions:
REMARK  status: ('A' for Active; 'I' for Inactive)
REMARK    1  A    between atoms: C_1  and  C_6
REMARK    2  A    between atoms: C_2  and  C_10
REMARK    3  A    between atoms: C_3  and  C_9
REMARK    4  A    between atoms: C_6  and  O_13
REMARK    5  A    between atoms: N_8  and  C_11
REMARK    6  A    between atoms: C_10  and  O_18
REMARK    7  A    between atoms: O_13  and  C_22
REMARK    8  A    between atoms: O_18  and  C_26
REMARK    9  A    between atoms: O_25  and  C_27
REMARK   10  A    between atoms: C_26  and  C_27
REMARK                            x       y       z     vdW  Elec       q    Type
REMARK                         _______ _______ _______ _____ _____    ______ ____
ROOT
ATOM      1  C   UNL     1     134.902 151.236  91.222  0.00  0.00    +0.000 C 
ATOM      2  C   UNL     1     135.674 152.132  91.508  0.00  0.00    +0.000 C 
ATOM      3  C   UNL     1     135.067 151.921  91.203  0.00  0.00    +0.000 C 
ATOM      4  C   UNL     1     135.329 150.768  91.537  0.00  0.00    +0.000 C 
ATOM      5  C   UNL     1     136.101 151.664  91.824  0.00  0.00    +0.000 C 
ATOM      6  N   UNL     1     135.925 150.981  91.836  0.00  0.00    +0.000 NA
ATOM      7  C   UNL     1     135.125 150.080  91.534  0.00  0.00    +0.000 C 
ATOM      8  C   UNL     1     136.706 151.890  92.126  0.00  0.00    +0.000 C 
ENDROOT
BRANCH   3   9
ATOM      9  C   UNL     1     134.637 152.393  90.885  0.00  0.00    +0.000 A 
ATOM     10  C   UNL     1     134.332 153.012  89.890  0.00  0.00    +0.000 A 
ATOM     11  C   UNL     1     134.746 152.557  90.196  0.00  0.00    +0.000 A 
ATOM     12  C   UNL     1     134.112 152.690  91.251  0.00  0.00    +0.000 A 
ATOM     13  C   UNL     1     133.785 153.326  90.256  0.00  0.00    +0.000 A 
ATOM     14  C   UNL     1     133.687 153.155  90.938  0.00  0.00    +0.000 A 
BRANCH  10  15
ATOM     15  N   UNL     1     134.435 153.187  89.187  0.00  0.00    +0.000 N 
ATOM     16  O   UNL     1     133.845 153.149  88.747  0.00  0.00    +0.000 OA
ATOM     17  O   UNL     1     135.077 153.381  88.960  0.00  0.00    +0.000 OA
ENDBRANCH  10  15
ENDBRANCH   3   9
BRANCH   1  18
ATOM     18  C   UNL     1     134.298 151.011  90.920  0.00  0.00    +0.000 C 
ATOM     19  O   UNL     1     133.674 151.244  91.170  0.00  0.00    +0.000 OA
BRANCH  18  20
ATOM     20  O   UNL     1     134.323 150.555  90.372  0.00  0.00    +0.000 OA
BRANCH  20  21
ATOM     21  C   UNL     1     133.769 150.103  90.264  0.00  0.00    +0.000 C 
ATOM     22  C   UNL     1     133.410 149.858  90.811  0.00  0.00    +0.000 C 
ATOM     23  C   UNL     1     133.589 149.910  89.603  0.00  0.00    +0.000 C 
ENDBRANCH  20  21
ENDBRANCH  18  20
ENDBRANCH   1  18
BRANCH   2  24
ATOM     24  C   UNL     1     135.856 152.804  91.501  0.00  0.00    +0.000 C 
ATOM     25  O   UNL     1     136.120 153.072  90.925  0.00  0.00    +0.000 OA
BRANCH  24  26
ATOM     26  O   UNL     1     135.769 153.207  92.090  0.00  0.00    +0.000 OA
BRANCH  26  27
ATOM     27  C   UNL     1     136.199 153.762  92.183  0.00  0.00    +0.000 C 
BRANCH  27  28
ATOM     28  C   UNL     1     136.115 154.169  92.765  0.00  0.00    +0.000 C 
BRANCH  28  29
ATOM     29  O   UNL     1     136.408 154.813  92.775  0.00  0.00    +0.000 OA
ATOM     30  C   UNL     1     136.323 155.221  93.332  0.00  0.00    +0.000 C 
ENDBRANCH  28  29
ENDBRANCH  27  28
ENDBRANCH  26  27
ENDBRANCH  24  26
ENDBRANCH   2  24
TORSDOF 10
ENDMDL
