MODEL 1
REMARK VINA RESULT:      -8.6      0.000      0.000
REMARK  Name = 
REMARK  15 active torsions:
REMARK  status: ('A' for Active; 'I' for Inactive)
REMARK    1  A    between atoms: C_1  and  C_4
REMARK    2  A    between atoms: C_2  and  C_3
REMARK    3  A    between atoms: C_3  and  C_7
REMARK    4  A    between atoms: C_4  and  C_5
REMARK    5  A    between atoms: C_5  and  C_6
REMARK    6  A    between atoms: C_6  and  C_20
REMARK    7  A    between atoms: C_8  and  C_9
REMARK    8  A    between atoms: C_9  and  C_10
REMARK    9  A    between atoms: C_11  and  C_12
REMARK   10  A    between atoms: C_12  and  C_13
REMARK   11  A    between atoms: C_14  and  C_15
REMARK   12  A    between atoms: C_15  and  C_16
REMARK   13  A    between atoms: C_17  and  C_18
REMARK   14  A    between atoms: C_20  and  O_21
REMARK   15  A    between atoms: O_21  and  C_23
REMARK                            x       y       z     vdW  Elec       q    Type
REMARK                         _______ _______ _______ _____ _____    ______ ____
ROOT
ATOM      1  C   UNL     1     143.434 112.516 165.083  0.00  0.00    +0.000 C 
ATOM      2  C   UNL     1     144.032 113.065 164.933  0.00  0.00    +0.000 C 
ENDROOT
BRANCH   1   3
ATOM      3  C   UNL     1     142.643 112.738 165.011  0.00  0.00    +0.000 C 
BRANCH   3   5
ATOM      4  C   UNL     1     141.262 112.368 165.037  0.00  0.00    +0.000 C 
ATOM      5  C   UNL     1     142.057 112.161 164.948  0.00  0.00    +0.000 C 
BRANCH   4   6
ATOM      6  C   UNL     1     141.055 113.152 165.189  0.00  0.00    +0.000 C 
BRANCH   6   7
ATOM      7  C   UNL     1     140.264 113.384 165.149  0.00  0.00    +0.000 C 
BRANCH   7   8
ATOM      8  C   UNL     1     140.060 114.173 165.276  0.00  0.00    +0.000 C 
BRANCH   8   9
ATOM      9  C   UNL     1     139.303 114.439 165.084  0.00  0.00    +0.000 C 
ATOM     10  O   UNL     1     138.642 114.100 165.443  0.00  0.00    +0.000 OA
BRANCH   9  11
ATOM     11  O   UNL     1     139.207 115.045 164.532  0.00  0.00    +0.000 OA
BRANCH  11  12
ATOM     12  C   UNL     1     138.743 115.702 164.718  0.00  0.00    +0.000 C 
ATOM     13  C   UNL     1     138.683 116.329 164.185  0.00  0.00    +0.000 C 
ENDBRANCH  11  12
ENDBRANCH   9  11
ENDBRANCH   8   9
ENDBRANCH   7   8
ENDBRANCH   6   7
ENDBRANCH   4   6
ENDBRANCH   3   5
ENDBRANCH   1   3
BRANCH   2  14
ATOM     14  C   UNL     1     143.838 113.835 164.713  0.00  0.00    +0.000 C 
BRANCH  14  15
ATOM     15  C   UNL     1     144.414 114.426 164.729  0.00  0.00    +0.000 C 
ATOM     16  C   UNL     1     144.308 115.116 164.289  0.00  0.00    +0.000 C 
BRANCH  16  17
ATOM     17  C   UNL     1     143.629 115.216 163.833  0.00  0.00    +0.000 C 
BRANCH  17  18
ATOM     18  C   UNL     1     143.435 115.961 163.537  0.00  0.00    +0.000 C 
ATOM     19  C   UNL     1     142.867 116.035 162.944  0.00  0.00    +0.000 C 
BRANCH  19  20
ATOM     20  C   UNL     1     142.492 115.363 162.646  0.00  0.00    +0.000 C 
BRANCH  20  21
ATOM     21  C   UNL     1     141.757 115.431 162.277  0.00  0.00    +0.000 C 
ATOM     22  C   UNL     1     141.476 114.820 161.800  0.00  0.00    +0.000 C 
BRANCH  22  23
ATOM     23  C   UNL     1     141.931 114.140 161.692  0.00  0.00    +0.000 C 
ATOM     24  C   UNL     1     141.598 113.476 161.331  0.00  0.00    +0.000 C 
ENDBRANCH  22  23
ENDBRANCH  20  21
ENDBRANCH  19  20
ENDBRANCH  17  18
ENDBRANCH  16  17
ENDBRANCH  14  15
ENDBRANCH   2  14
TORSDOF 15
ENDMDL
MODEL 2
REMARK VINA RESULT:      -8.4      1.327      3.445
REMARK  Name = 
REMARK  15 active torsions:
REMARK  status: ('A' for Active; 'I' for Inactive)
REMARK    1  A    between atoms: C_1  and  C_4
REMARK    2  A    between atoms: C_2  and  C_3
REMARK    3  A    between atoms: C_3  and  C_7
REMARK    4  A    between atoms: C_4  and  C_5
REMARK    5  A    between atoms: C_5  and  C_6
REMARK    6  A    between atoms: C_6  and  C_20
REMARK    7  A    between atoms: C_8  and  C_9
REMARK    8  A    between atoms: C_9  and  C_10
REMARK    9  A    between atoms: C_11  and  C_12
REMARK   10  A    between atoms: C_12  and  C_13
REMARK   11  A    between atoms: C_14  and  C_15
REMARK   12  A    between atoms: C_15  and  C_16
REMARK   13  A    between atoms: C_17  and  C_18
REMARK   14  A    between atoms: C_20  and  O_21
REMARK   15  A    between atoms: O_21  and  C_23
REMARK                            x       y       z     vdW  Elec       q    Type
REMARK                         _______ _______ _______ _____ _____    ______ ____
ROOT
ATOM      1  C   UNL     1     143.833 114.848 164.294  0.00  0.00    +0.000 C 
ATOM      2  C   UNL     1     143.930 114.159 164.738  0.00  0.00    +0.000 C 
ENDROOT
BRANCH   1   3
ATOM      3  C   UNL     1     143.121 114.990 163.904  0.00  0.00    +0.000 C 
BRANCH   3   5
ATOM      4  C   UNL     1     142.402 115.898 163.064  0.00  0.00    +0.000 C 
ATOM      5  C   UNL     1     143.101 115.501 163.255  0.00  0.00    +0.000 C 
BRANCH   4   6
ATOM      6  C   UNL     1     141.725 115.784 163.521  0.00  0.00    +0.000 C 
BRANCH   6   7
ATOM      7  C   UNL     1     140.986 116.001 163.225  0.00  0.00    +0.000 C 
BRANCH   7   8
ATOM      8  C   UNL     1     140.458 116.420 163.701  0.00  0.00    +0.000 C 
BRANCH   8   9
ATOM      9  C   UNL     1     139.660 116.458 163.496  0.00  0.00    +0.000 C 
ATOM     10  O   UNL     1     139.394 116.100 162.802  0.00  0.00    +0.000 OA
BRANCH   9  11
ATOM     11  O   UNL     1     139.127 116.854 163.986  0.00  0.00    +0.000 OA
BRANCH  11  12
ATOM     12  C   UNL     1     138.315 116.763 163.872  0.00  0.00    +0.000 C 
ATOM     13  C   UNL     1     137.783 117.103 164.401  0.00  0.00    +0.000 C 
ENDBRANCH  11  12
ENDBRANCH   9  11
ENDBRANCH   8   9
ENDBRANCH   7   8
ENDBRANCH   6   7
ENDBRANCH   4   6
ENDBRANCH   3   5
ENDBRANCH   1   3
BRANCH   2  14
ATOM     14  C   UNL     1     143.314 113.613 164.790  0.00  0.00    +0.000 C 
BRANCH  14  15
ATOM     15  C   UNL     1     143.433 112.893 165.176  0.00  0.00    +0.000 C 
ATOM     16  C   UNL     1     142.805 112.366 165.268  0.00  0.00    +0.000 C 
BRANCH  16  17
ATOM     17  C   UNL     1     142.059 112.558 164.975  0.00  0.00    +0.000 C 
BRANCH  17  18
ATOM     18  C   UNL     1     141.560 111.964 164.693  0.00  0.00    +0.000 C 
ATOM     19  C   UNL     1     140.742 112.054 164.743  0.00  0.00    +0.000 C 
BRANCH  19  20
ATOM     20  C   UNL     1     140.421 112.737 165.076  0.00  0.00    +0.000 C 
BRANCH  20  21
ATOM     21  C   UNL     1     139.640 112.947 164.912  0.00  0.00    +0.000 C 
ATOM     22  C   UNL     1     139.231 113.447 165.424  0.00  0.00    +0.000 C 
BRANCH  22  23
ATOM     23  C   UNL     1     139.603 113.736 166.102  0.00  0.00    +0.000 C 
ATOM     24  C   UNL     1     139.200 114.252 166.604  0.00  0.00    +0.000 C 
ENDBRANCH  22  23
ENDBRANCH  20  21
ENDBRANCH  19  20
ENDBRANCH  17  18
ENDBRANCH  16  17
ENDBRANCH  14  15
ENDBRANCH   2  14
TORSDOF 15
ENDMDL
MODEL 3
REMARK VINA RESULT:      -8.3      1.747      3.712
REMARK  Name = 
REMARK  15 active torsions:
REMARK  status: ('A' for Active; 'I' for Inactive)
REMARK    1  A    between atoms: C_1  and  C_4
REMARK    2  A    between atoms: C_2  and  C_3
REMARK    3  A    between atoms: C_3  and  C_7
REMARK    4  A    between atoms: C_4  and  C_5
REMARK    5  A    between atoms: C_5  and  C_6
REMARK    6  A    between atoms: C_6  and  C_20
REMARK    7  A    between atoms: C_8  and  C_9
REMARK    8  A    between atoms: C_9  and  C_10
REMARK    9  A    between atoms: C_11  and  C_12
REMARK   10  A    between atoms: C_12  and  C_13
REMARK   11  A    between atoms: C_14  and  C_15
REMARK   12  A    between atoms: C_15  and  C_16
REMARK   13  A    between atoms: C_17  and  C_18
REMARK   14  A    between atoms: C_20  and  O_21
REMARK   15  A    between atoms: O_21  and  C_23
REMARK                            x       y       z     vdW  Elec       q    Type
REMARK                         _______ _______ _______ _____ _____    ______ ____
ROOT
ATOM      1  C   UNL     1     139.474 112.715 165.113  0.00  0.00    +0.000 C 
ATOM      2  C   UNL     1     139.039 113.414 165.063  0.00  0.00    +0.000 C 
ENDROOT
BRANCH   1   3
ATOM      3  C   UNL     1     140.285 112.722 164.965  0.00  0.00    +0.000 C 
BRANCH   3   5
ATOM      4  C   UNL     1     141.496 111.976 164.821  0.00  0.00    +0.000 C 
ATOM      5  C   UNL     1     140.674 112.023 164.763  0.00  0.00    +0.000 C 
BRANCH   4   6
ATOM      6  C   UNL     1     141.928 112.629 165.081  0.00  0.00    +0.000 C 
BRANCH   6   7
ATOM      7  C   UNL     1     142.740 112.671 164.934  0.00  0.00    +0.000 C 
BRANCH   7   8
ATOM      8  C   UNL     1     143.180 113.303 165.231  0.00  0.00    +0.000 C 
BRANCH   8   9
ATOM      9  C   UNL     1     143.935 113.454 164.934  0.00  0.00    +0.000 C 
ATOM     10  O   UNL     1     144.512 112.865 164.952  0.00  0.00    +0.000 OA
BRANCH   9  11
ATOM     11  O   UNL     1     144.112 114.196 164.619  0.00  0.00    +0.000 OA
BRANCH  11  12
ATOM     12  C   UNL     1     144.767 114.615 164.893  0.00  0.00    +0.000 C 
ATOM     13  C   UNL     1     144.934 115.365 164.593  0.00  0.00    +0.000 C 
ENDBRANCH  11  12
ENDBRANCH   9  11
ENDBRANCH   8   9
ENDBRANCH   7   8
ENDBRANCH   6   7
ENDBRANCH   4   6
ENDBRANCH   3   5
ENDBRANCH   1   3
BRANCH   2  14
ATOM     14  C   UNL     1     139.415 114.120 164.865  0.00  0.00    +0.000 C 
BRANCH  14  15
ATOM     15  C   UNL     1     139.025 114.839 164.972  0.00  0.00    +0.000 C 
ATOM     16  C   UNL     1     139.327 115.526 164.628  0.00  0.00    +0.000 C 
BRANCH  16  17
ATOM     17  C   UNL     1     140.017 115.495 164.178  0.00  0.00    +0.000 C 
BRANCH  17  18
ATOM     18  C   UNL     1     140.483 116.170 164.088  0.00  0.00    +0.000 C 
ATOM     19  C   UNL     1     141.061 116.197 163.501  0.00  0.00    +0.000 C 
BRANCH  19  20
ATOM     20  C   UNL     1     141.174 115.549 163.003  0.00  0.00    +0.000 C 
BRANCH  20  21
ATOM     21  C   UNL     1     141.845 115.508 162.526  0.00  0.00    +0.000 C 
ATOM     22  C   UNL     1     141.907 114.923 161.948  0.00  0.00    +0.000 C 
BRANCH  22  23
ATOM     23  C   UNL     1     141.296 114.378 161.847  0.00  0.00    +0.000 C 
ATOM     24  C   UNL     1     141.387 113.751 161.318  0.00  0.00    +0.000 C 
ENDBRANCH  22  23
ENDBRANCH  20  21
ENDBRANCH  19  20
ENDBRANCH  17  18
ENDBRANCH  16  17
ENDBRANCH  14  15
ENDBRANCH   2  14
TORSDOF 15
ENDMDL
MODEL 4
REMARK VINA RESULT:      -8.2      1.828      4.266
REMARK  Name = 
REMARK  15 active torsions:
REMARK  status: ('A' for Active; 'I' for Inactive)
REMARK    1  A    between atoms: C_1  and  C_4
REMARK    2  A    between atoms: C_2  and  C_3
REMARK    3  A    between atoms: C_3  and  C_7
REMARK    4  A    between atoms: C_4  and  C_5
REMARK    5  A    between atoms: C_5  and  C_6
REMARK    6  A    between atoms: C_6  and  C_20
REMARK    7  A    between atoms: C_8  and  C_9
REMARK    8  A    between atoms: C_9  and  C_10
REMARK    9  A    between atoms: C_11  and  C_12
REMARK   10  A    between atoms: C_12  and  C_13
REMARK   11  A    between atoms: C_14  and  C_15
REMARK   12  A    between atoms: C_15  and  C_16
REMARK   13  A    between atoms: C_17  and  C_18
REMARK   14  A    between atoms: C_20  and  O_21
REMARK   15  A    between atoms: O_21  and  C_23
REMARK                            x       y       z     vdW  Elec       q    Type
REMARK                         _______ _______ _______ _____ _____    ______ ____
ROOT
ATOM      1  C   UNL     1     142.897 116.047 162.963  0.00  0.00    +0.000 C 
ATOM      2  C   UNL     1     143.476 115.977 163.546  0.00  0.00    +0.000 C 
ENDROOT
BRANCH   1   3
ATOM      3  C   UNL     1     142.529 115.373 162.663  0.00  0.00    +0.000 C 
BRANCH   3   5
ATOM      4  C   UNL     1     141.495 114.813 161.850  0.00  0.00    +0.000 C 
ATOM      5  C   UNL     1     141.780 115.429 162.320  0.00  0.00    +0.000 C 
BRANCH   4   6
ATOM      6  C   UNL     1     141.958 114.143 161.723  0.00  0.00    +0.000 C 
BRANCH   6   7
ATOM      7  C   UNL     1     141.598 113.420 161.551  0.00  0.00    +0.000 C 
BRANCH   7   8
ATOM      8  C   UNL     1     142.042 112.807 161.223  0.00  0.00    +0.000 C 
BRANCH   8   9
ATOM      9  C   UNL     1     141.894 112.025 161.445  0.00  0.00    +0.000 C 
ATOM     10  O   UNL     1     141.117 111.750 161.492  0.00  0.00    +0.000 OA
BRANCH   9  11
ATOM     11  O   UNL     1     142.522 111.521 161.621  0.00  0.00    +0.000 OA
BRANCH  11  12
ATOM     12  C   UNL     1     142.449 110.710 161.490  0.00  0.00    +0.000 C 
ATOM     13  C   UNL     1     143.064 110.201 161.697  0.00  0.00    +0.000 C 
ENDBRANCH  11  12
ENDBRANCH   9  11
ENDBRANCH   8   9
ENDBRANCH   7   8
ENDBRANCH   6   7
ENDBRANCH   4   6
ENDBRANCH   3   5
ENDBRANCH   1   3
BRANCH   2  14
ATOM     14  C   UNL     1     143.687 115.232 163.829  0.00  0.00    +0.000 C 
BRANCH  14  15
ATOM     15  C   UNL     1     144.366 115.143 164.290  0.00  0.00    +0.000 C 
ATOM     16  C   UNL     1     144.486 114.447 164.717  0.00  0.00    +0.000 C 
BRANCH  16  17
ATOM     17  C   UNL     1     143.928 113.842 164.685  0.00  0.00    +0.000 C 
BRANCH  17  18
ATOM     18  C   UNL     1     144.150 113.065 164.855  0.00  0.00    +0.000 C 
ATOM     19  C   UNL     1     143.575 112.499 165.024  0.00  0.00    +0.000 C 
BRANCH  19  20
ATOM     20  C   UNL     1     142.777 112.708 165.021  0.00  0.00    +0.000 C 
BRANCH  20  21
ATOM     21  C   UNL     1     142.197 112.121 165.015  0.00  0.00    +0.000 C 
ATOM     22  C   UNL     1     141.405 112.321 165.127  0.00  0.00    +0.000 C 
BRANCH  22  23
ATOM     23  C   UNL     1     141.192 113.109 165.247  0.00  0.00    +0.000 C 
ATOM     24  C   UNL     1     140.395 113.323 165.259  0.00  0.00    +0.000 C 
ENDBRANCH  22  23
ENDBRANCH  20  21
ENDBRANCH  19  20
ENDBRANCH  17  18
ENDBRANCH  16  17
ENDBRANCH  14  15
ENDBRANCH   2  14
TORSDOF 15
ENDMDL
MODEL 5
REMARK VINA RESULT:      -8.2      0.985      2.981
REMARK  Name = 
REMARK  15 active torsions:
REMARK  status: ('A' for Active; 'I' for Inactive)
REMARK    1  A    between atoms: C_1  and  C_4
REMARK    2  A    between atoms: C_2  and  C_3
REMARK    3  A    between atoms: C_3  and  C_7
REMARK    4  A    between atoms: C_4  and  C_5
REMARK    5  A    between atoms: C_5  and  C_6
REMARK    6  A    between atoms: C_6  and  C_20
REMARK    7  A    between atoms: C_8  and  C_9
REMARK    8  A    between atoms: C_9  and  C_10
REMARK    9  A    between atoms: C_11  and  C_12
REMARK   10  A    between atoms: C_12  and  C_13
REMARK   11  A    between atoms: C_14  and  C_15
REMARK   12  A    between atoms: C_15  and  C_16
REMARK   13  A    between atoms: C_17  and  C_18
REMARK   14  A    between atoms: C_20  and  O_21
REMARK   15  A    between atoms: O_21  and  C_23
REMARK                            x       y       z     vdW  Elec       q    Type
REMARK                         _______ _______ _______ _____ _____    ______ ____
ROOT
ATOM      1  C   UNL     1     142.851 116.004 162.777  0.00  0.00    +0.000 C 
ATOM      2  C   UNL     1     143.566 115.791 163.130  0.00  0.00    +0.000 C 
ENDROOT
BRANCH   1   3
ATOM      3  C   UNL     1     142.143 115.684 163.054  0.00  0.00    +0.000 C 
BRANCH   3   5
ATOM      4  C   UNL     1     140.727 115.609 162.871  0.00  0.00    +0.000 C 
ATOM      5  C   UNL     1     141.489 115.632 162.554  0.00  0.00    +0.000 C 
BRANCH   4   6
ATOM      6  C   UNL     1     140.620 115.636 163.689  0.00  0.00    +0.000 C 
BRANCH   6   7
ATOM      7  C   UNL     1     139.878 115.477 164.013  0.00  0.00    +0.000 C 
BRANCH   7   8
ATOM      8  C   UNL     1     139.785 115.442 164.832  0.00  0.00    +0.000 C 
BRANCH   8   9
ATOM      9  C   UNL     1     139.079 115.160 165.155  0.00  0.00    +0.000 C 
ATOM     10  O   UNL     1     138.366 115.534 164.978  0.00  0.00    +0.000 OA
BRANCH   9  11
ATOM     11  O   UNL     1     139.089 114.505 165.656  0.00  0.00    +0.000 OA
BRANCH  11  12
ATOM     12  C   UNL     1     138.837 114.580 166.439  0.00  0.00    +0.000 C 
ATOM     13  C   UNL     1     138.881 113.935 166.950  0.00  0.00    +0.000 C 
ENDBRANCH  11  12
ENDBRANCH   9  11
ENDBRANCH   8   9
ENDBRANCH   7   8
ENDBRANCH   6   7
ENDBRANCH   4   6
ENDBRANCH   3   5
ENDBRANCH   1   3
BRANCH   2  14
ATOM     14  C   UNL     1     143.573 115.259 163.759  0.00  0.00    +0.000 C 
BRANCH  14  15
ATOM     15  C   UNL     1     144.224 115.227 164.265  0.00  0.00    +0.000 C 
ATOM     16  C   UNL     1     144.357 114.554 164.723  0.00  0.00    +0.000 C 
BRANCH  16  17
ATOM     17  C   UNL     1     143.840 113.914 164.676  0.00  0.00    +0.000 C 
BRANCH  17  18
ATOM     18  C   UNL     1     144.059 113.182 164.990  0.00  0.00    +0.000 C 
ATOM     19  C   UNL     1     143.496 112.587 165.079  0.00  0.00    +0.000 C 
BRANCH  19  20
ATOM     20  C   UNL     1     142.714 112.721 164.855  0.00  0.00    +0.000 C 
BRANCH  20  21
ATOM     21  C   UNL     1     142.098 112.360 165.269  0.00  0.00    +0.000 C 
ATOM     22  C   UNL     1     141.448 112.059 164.862  0.00  0.00    +0.000 C 
BRANCH  22  23
ATOM     23  C   UNL     1     141.411 112.119 164.040  0.00  0.00    +0.000 C 
ATOM     24  C   UNL     1     140.724 111.899 163.641  0.00  0.00    +0.000 C 
ENDBRANCH  22  23
ENDBRANCH  20  21
ENDBRANCH  19  20
ENDBRANCH  17  18
ENDBRANCH  16  17
ENDBRANCH  14  15
ENDBRANCH   2  14
TORSDOF 15
ENDMDL
MODEL 6
REMARK VINA RESULT:      -8.1      1.242      2.126
REMARK  Name = 
REMARK  15 active torsions:
REMARK  status: ('A' for Active; 'I' for Inactive)
REMARK    1  A    between atoms: C_1  and  C_4
REMARK    2  A    between atoms: C_2  and  C_3
REMARK    3  A    between atoms: C_3  and  C_7
REMARK    4  A    between atoms: C_4  and  C_5
REMARK    5  A    between atoms: C_5  and  C_6
REMARK    6  A    between atoms: C_6  and  C_20
REMARK    7  A    between atoms: C_8  and  C_9
REMARK    8  A    between atoms: C_9  and  C_10
REMARK    9  A    between atoms: C_11  and  C_12
REMARK   10  A    between atoms: C_12  and  C_13
REMARK   11  A    between atoms: C_14  and  C_15
REMARK   12  A    between atoms: C_15  and  C_16
REMARK   13  A    between atoms: C_17  and  C_18
REMARK   14  A    between atoms: C_20  and  O_21
REMARK   15  A    between atoms: O_21  and  C_23
REMARK                            x       y       z     vdW  Elec       q    Type
REMARK                         _______ _______ _______ _____ _____    ______ ____
ROOT
ATOM      1  C   UNL     1     144.698 114.360 164.733  0.00  0.00    +0.000 C 
ATOM      2  C   UNL     1     144.608 115.102 164.383  0.00  0.00    +0.000 C 
ENDROOT
BRANCH   1   3
ATOM      3  C   UNL     1     144.077 113.817 164.716  0.00  0.00    +0.000 C 
BRANCH   3   5
ATOM      4  C   UNL     1     143.619 112.484 164.954  0.00  0.00    +0.000 C 
ATOM      5  C   UNL     1     144.233 113.010 164.787  0.00  0.00    +0.000 C 
BRANCH   4   6
ATOM      6  C   UNL     1     142.850 112.767 165.052  0.00  0.00    +0.000 C 
BRANCH   6   7
ATOM      7  C   UNL     1     142.208 112.255 164.964  0.00  0.00    +0.000 C 
BRANCH   7   8
ATOM      8  C   UNL     1     141.481 112.445 165.303  0.00  0.00    +0.000 C 
BRANCH   8   9
ATOM      9  C   UNL     1     140.781 112.273 164.900  0.00  0.00    +0.000 C 
ATOM     10  O   UNL     1     140.739 111.612 164.408  0.00  0.00    +0.000 OA
BRANCH   9  11
ATOM     11  O   UNL     1     140.123 112.763 164.989  0.00  0.00    +0.000 OA
BRANCH  11  12
ATOM     12  C   UNL     1     139.427 112.598 164.579  0.00  0.00    +0.000 C 
ATOM     13  C   UNL     1     138.755 113.060 164.703  0.00  0.00    +0.000 C 
ENDBRANCH  11  12
ENDBRANCH   9  11
ENDBRANCH   8   9
ENDBRANCH   7   8
ENDBRANCH   6   7
ENDBRANCH   4   6
ENDBRANCH   3   5
ENDBRANCH   1   3
BRANCH   2  14
ATOM     14  C   UNL     1     143.897 115.300 164.016  0.00  0.00    +0.000 C 
BRANCH  14  15
ATOM     15  C   UNL     1     143.783 116.063 163.723  0.00  0.00    +0.000 C 
ATOM     16  C   UNL     1     143.088 116.251 163.321  0.00  0.00    +0.000 C 
BRANCH  16  17
ATOM     17  C   UNL     1     142.507 115.676 163.211  0.00  0.00    +0.000 C 
BRANCH  17  18
ATOM     18  C   UNL     1     141.709 115.886 163.231  0.00  0.00    +0.000 C 
ATOM     19  C   UNL     1     141.160 115.465 162.783  0.00  0.00    +0.000 C 
BRANCH  19  20
ATOM     20  C   UNL     1     141.408 114.833 162.314  0.00  0.00    +0.000 C 
BRANCH  20  21
ATOM     21  C   UNL     1     140.884 114.486 161.779  0.00  0.00    +0.000 C 
ATOM     22  C   UNL     1     141.097 113.796 161.381  0.00  0.00    +0.000 C 
BRANCH  22  23
ATOM     23  C   UNL     1     141.834 113.453 161.517  0.00  0.00    +0.000 C 
ATOM     24  C   UNL     1     141.983 112.682 161.263  0.00  0.00    +0.000 C 
ENDBRANCH  22  23
ENDBRANCH  20  21
ENDBRANCH  19  20
ENDBRANCH  17  18
ENDBRANCH  16  17
ENDBRANCH  14  15
ENDBRANCH   2  14
TORSDOF 15
ENDMDL
MODEL 7
REMARK VINA RESULT:      -8.1      1.708      4.673
REMARK  Name = 
REMARK  15 active torsions:
REMARK  status: ('A' for Active; 'I' for Inactive)
REMARK    1  A    between atoms: C_1  and  C_4
REMARK    2  A    between atoms: C_2  and  C_3
REMARK    3  A    between atoms: C_3  and  C_7
REMARK    4  A    between atoms: C_4  and  C_5
REMARK    5  A    between atoms: C_5  and  C_6
REMARK    6  A    between atoms: C_6  and  C_20
REMARK    7  A    between atoms: C_8  and  C_9
REMARK    8  A    between atoms: C_9  and  C_10
REMARK    9  A    between atoms: C_11  and  C_12
REMARK   10  A    between atoms: C_12  and  C_13
REMARK   11  A    between atoms: C_14  and  C_15
REMARK   12  A    between atoms: C_15  and  C_16
REMARK   13  A    between atoms: C_17  and  C_18
REMARK   14  A    between atoms: C_20  and  O_21
REMARK   15  A    between atoms: O_21  and  C_23
REMARK                            x       y       z     vdW  Elec       q    Type
REMARK                         _______ _______ _______ _____ _____    ______ ____
ROOT
ATOM      1  C   UNL     1     139.394 115.815 164.410  0.00  0.00    +0.000 C 
ATOM      2  C   UNL     1     139.207 115.314 165.038  0.00  0.00    +0.000 C 
ENDROOT
BRANCH   1   3
ATOM      3  C   UNL     1     139.869 115.544 163.793  0.00  0.00    +0.000 C 
BRANCH   3   5
ATOM      4  C   UNL     1     140.545 115.802 162.560  0.00  0.00    +0.000 C 
ATOM      5  C   UNL     1     140.186 116.078 163.250  0.00  0.00    +0.000 C 
BRANCH   4   6
ATOM      6  C   UNL     1     140.587 114.991 162.414  0.00  0.00    +0.000 C 
BRANCH   6   7
ATOM      7  C   UNL     1     141.081 114.705 161.817  0.00  0.00    +0.000 C 
BRANCH   7   8
ATOM      8  C   UNL     1     141.004 113.926 161.558  0.00  0.00    +0.000 C 
BRANCH   8   9
ATOM      9  C   UNL     1     141.665 113.518 161.276  0.00  0.00    +0.000 C 
ATOM     10  O   UNL     1     142.137 113.854 160.689  0.00  0.00    +0.000 OA
BRANCH   9  11
ATOM     11  O   UNL     1     141.852 112.776 161.583  0.00  0.00    +0.000 OA
BRANCH  11  12
ATOM     12  C   UNL     1     142.086 112.167 161.076  0.00  0.00    +0.000 C 
ATOM     13  C   UNL     1     142.178 111.401 161.366  0.00  0.00    +0.000 C 
ENDBRANCH  11  12
ENDBRANCH   9  11
ENDBRANCH   8   9
ENDBRANCH   7   8
ENDBRANCH   6   7
ENDBRANCH   4   6
ENDBRANCH   3   5
ENDBRANCH   1   3
BRANCH   2  14
ATOM     14  C   UNL     1     139.495 114.541 165.049  0.00  0.00    +0.000 C 
BRANCH  14  15
ATOM     15  C   UNL     1     139.191 113.995 165.587  0.00  0.00    +0.000 C 
ATOM     16  C   UNL     1     139.575 113.275 165.705  0.00  0.00    +0.000 C 
BRANCH  16  17
ATOM     17  C   UNL     1     140.262 113.100 165.284  0.00  0.00    +0.000 C 
BRANCH  17  18
ATOM     18  C   UNL     1     140.441 112.318 165.092  0.00  0.00    +0.000 C 
ATOM     19  C   UNL     1     141.224 112.094 164.960  0.00  0.00    +0.000 C 
BRANCH  19  20
ATOM     20  C   UNL     1     141.828 112.652 165.021  0.00  0.00    +0.000 C 
BRANCH  20  21
ATOM     21  C   UNL     1     142.616 112.406 165.034  0.00  0.00    +0.000 C 
ATOM     22  C   UNL     1     143.220 112.949 164.895  0.00  0.00    +0.000 C 
BRANCH  22  23
ATOM     23  C   UNL     1     143.038 113.739 164.742  0.00  0.00    +0.000 C 
ATOM     24  C   UNL     1     143.637 114.269 164.542  0.00  0.00    +0.000 C 
ENDBRANCH  22  23
ENDBRANCH  20  21
ENDBRANCH  19  20
ENDBRANCH  17  18
ENDBRANCH  16  17
ENDBRANCH  14  15
ENDBRANCH   2  14
TORSDOF 15
ENDMDL
MODEL 8
REMARK VINA RESULT:      -8.0      1.808      3.433
REMARK  Name = 
REMARK  15 active torsions:
REMARK  status: ('A' for Active; 'I' for Inactive)
REMARK    1  A    between atoms: C_1  and  C_4
REMARK    2  A    between atoms: C_2  and  C_3
REMARK    3  A    between atoms: C_3  and  C_7
REMARK    4  A    between atoms: C_4  and  C_5
REMARK    5  A    between atoms: C_5  and  C_6
REMARK    6  A    between atoms: C_6  and  C_20
REMARK    7  A    between atoms: C_8  and  C_9
REMARK    8  A    between atoms: C_9  and  C_10
REMARK    9  A    between atoms: C_11  and  C_12
REMARK   10  A    between atoms: C_12  and  C_13
REMARK   11  A    between atoms: C_14  and  C_15
REMARK   12  A    between atoms: C_15  and  C_16
REMARK   13  A    between atoms: C_17  and  C_18
REMARK   14  A    between atoms: C_20  and  O_21
REMARK   15  A    between atoms: O_21  and  C_23
REMARK                            x       y       z     vdW  Elec       q    Type
REMARK                         _______ _______ _______ _____ _____    ______ ____
ROOT
ATOM      1  C   UNL     1     144.356 114.582 164.709  0.00  0.00    +0.000 C 
ATOM      2  C   UNL     1     144.186 115.275 164.295  0.00  0.00    +0.000 C 
ENDROOT
BRANCH   1   3
ATOM      3  C   UNL     1     143.839 113.940 164.671  0.00  0.00    +0.000 C 
BRANCH   3   5
ATOM      4  C   UNL     1     143.511 112.600 165.045  0.00  0.00    +0.000 C 
ATOM      5  C   UNL     1     143.953 113.288 165.162  0.00  0.00    +0.000 C 
BRANCH   4   6
ATOM      6  C   UNL     1     142.956 112.566 164.436  0.00  0.00    +0.000 C 
BRANCH   6   7
ATOM      7  C   UNL     1     142.414 111.944 164.407  0.00  0.00    +0.000 C 
BRANCH   7   8
ATOM      8  C   UNL     1     142.008 111.784 163.706  0.00  0.00    +0.000 C 
BRANCH   8   9
ATOM      9  C   UNL     1     141.421 111.203 163.693  0.00  0.00    +0.000 C 
ATOM     10  O   UNL     1     140.848 111.182 164.286  0.00  0.00    +0.000 OA
BRANCH   9  11
ATOM     11  O   UNL     1     141.410 110.644 163.087  0.00  0.00    +0.000 OA
BRANCH  11  12
ATOM     12  C   UNL     1     140.692 110.419 162.747  0.00  0.00    +0.000 C 
ATOM     13  C   UNL     1     140.682 109.883 162.121  0.00  0.00    +0.000 C 
ENDBRANCH  11  12
ENDBRANCH   9  11
ENDBRANCH   8   9
ENDBRANCH   7   8
ENDBRANCH   6   7
ENDBRANCH   4   6
ENDBRANCH   3   5
ENDBRANCH   1   3
BRANCH   2  14
ATOM     14  C   UNL     1     143.499 115.326 163.843  0.00  0.00    +0.000 C 
BRANCH  14  15
ATOM     15  C   UNL     1     143.418 115.927 163.283  0.00  0.00    +0.000 C 
ATOM     16  C   UNL     1     142.678 116.086 162.953  0.00  0.00    +0.000 C 
BRANCH  16  17
ATOM     17  C   UNL     1     142.021 115.644 163.182  0.00  0.00    +0.000 C 
BRANCH  17  18
ATOM     18  C   UNL     1     141.392 115.538 162.659  0.00  0.00    +0.000 C 
ATOM     19  C   UNL     1     140.637 115.379 162.948  0.00  0.00    +0.000 C 
BRANCH  19  20
ATOM     20  C   UNL     1     140.509 115.324 163.761  0.00  0.00    +0.000 C 
BRANCH  20  21
ATOM     21  C   UNL     1     139.770 115.510 164.076  0.00  0.00    +0.000 C 
ATOM     22  C   UNL     1     139.498 115.122 164.750  0.00  0.00    +0.000 C 
BRANCH  22  23
ATOM     23  C   UNL     1     139.966 114.547 165.112  0.00  0.00    +0.000 C 
ATOM     24  C   UNL     1     139.686 114.144 165.775  0.00  0.00    +0.000 C 
ENDBRANCH  22  23
ENDBRANCH  20  21
ENDBRANCH  19  20
ENDBRANCH  17  18
ENDBRANCH  16  17
ENDBRANCH  14  15
ENDBRANCH   2  14
TORSDOF 15
ENDMDL
MODEL 9
REMARK VINA RESULT:      -7.9      1.779      4.901
REMARK  Name = 
REMARK  15 active torsions:
REMARK  status: ('A' for Active; 'I' for Inactive)
REMARK    1  A    between atoms: C_1  and  C_4
REMARK    2  A    between atoms: C_2  and  C_3
REMARK    3  A    between atoms: C_3  and  C_7
REMARK    4  A    between atoms: C_4  and  C_5
REMARK    5  A    between atoms: C_5  and  C_6
REMARK    6  A    between atoms: C_6  and  C_20
REMARK    7  A    between atoms: C_8  and  C_9
REMARK    8  A    between atoms: C_9  and  C_10
REMARK    9  A    between atoms: C_11  and  C_12
REMARK   10  A    between atoms: C_12  and  C_13
REMARK   11  A    between atoms: C_14  and  C_15
REMARK   12  A    between atoms: C_15  and  C_16
REMARK   13  A    between atoms: C_17  and  C_18
REMARK   14  A    between atoms: C_20  and  O_21
REMARK   15  A    between atoms: O_21  and  C_23
REMARK                            x       y       z     vdW  Elec       q    Type
REMARK                         _______ _______ _______ _____ _____    ______ ____
ROOT
ATOM      1  C   UNL     1     139.607 116.499 163.133  0.00  0.00    +0.000 C 
ATOM      2  C   UNL     1     138.993 116.473 163.683  0.00  0.00    +0.000 C 
ENDROOT
BRANCH   1   3
ATOM      3  C   UNL     1     140.250 115.988 163.207  0.00  0.00    +0.000 C 
BRANCH   3   5
ATOM      4  C   UNL     1     141.446 115.522 162.578  0.00  0.00    +0.000 C 
ATOM      5  C   UNL     1     140.646 115.722 162.534  0.00  0.00    +0.000 C 
BRANCH   4   6
ATOM      6  C   UNL     1     141.848 115.588 163.295  0.00  0.00    +0.000 C 
BRANCH   6   7
ATOM      7  C   UNL     1     142.619 115.299 163.363  0.00  0.00    +0.000 C 
BRANCH   7   8
ATOM      8  C   UNL     1     142.956 115.198 164.109  0.00  0.00    +0.000 C 
BRANCH   8   9
ATOM      9  C   UNL     1     143.712 114.875 164.179  0.00  0.00    +0.000 C 
ATOM     10  O   UNL     1     144.353 115.242 163.811  0.00  0.00    +0.000 OA
BRANCH   9  11
ATOM     11  O   UNL     1     143.827 114.186 164.617  0.00  0.00    +0.000 OA
BRANCH  11  12
ATOM     12  C   UNL     1     144.470 114.125 165.131  0.00  0.00    +0.000 C 
ATOM     13  C   UNL     1     144.565 113.451 165.596  0.00  0.00    +0.000 C 
ENDBRANCH  11  12
ENDBRANCH   9  11
ENDBRANCH   8   9
ENDBRANCH   7   8
ENDBRANCH   6   7
ENDBRANCH   4   6
ENDBRANCH   3   5
ENDBRANCH   1   3
BRANCH   2  14
ATOM     14  C   UNL     1     139.021 115.936 164.307  0.00  0.00    +0.000 C 
BRANCH  14  15
ATOM     15  C   UNL     1     138.412 115.917 164.863  0.00  0.00    +0.000 C 
ATOM     16  C   UNL     1     138.413 115.343 165.456  0.00  0.00    +0.000 C 
BRANCH  16  17
ATOM     17  C   UNL     1     139.022 114.789 165.494  0.00  0.00    +0.000 C 
BRANCH  17  18
ATOM     18  C   UNL     1     139.165 114.379 166.195  0.00  0.00    +0.000 C 
ATOM     19  C   UNL     1     139.588 113.671 166.181  0.00  0.00    +0.000 C 
BRANCH  19  20
ATOM     20  C   UNL     1     139.869 113.373 165.465  0.00  0.00    +0.000 C 
BRANCH  20  21
ATOM     21  C   UNL     1     140.508 112.852 165.458  0.00  0.00    +0.000 C 
ATOM     22  C   UNL     1     140.636 112.364 164.806  0.00  0.00    +0.000 C 
BRANCH  22  23
ATOM     23  C   UNL     1     140.125 112.397 164.160  0.00  0.00    +0.000 C 
ATOM     24  C   UNL     1     140.308 111.985 163.469  0.00  0.00    +0.000 C 
ENDBRANCH  22  23
ENDBRANCH  20  21
ENDBRANCH  19  20
ENDBRANCH  17  18
ENDBRANCH  16  17
ENDBRANCH  14  15
ENDBRANCH   2  14
TORSDOF 15
ENDMDL
MODEL 10
REMARK VINA RESULT:      -7.9      2.227      4.088
REMARK  Name = 
REMARK  15 active torsions:
REMARK  status: ('A' for Active; 'I' for Inactive)
REMARK    1  A    between atoms: C_1  and  C_4
REMARK    2  A    between atoms: C_2  and  C_3
REMARK    3  A    between atoms: C_3  and  C_7
REMARK    4  A    between atoms: C_4  and  C_5
REMARK    5  A    between atoms: C_5  and  C_6
REMARK    6  A    between atoms: C_6  and  C_20
REMARK    7  A    between atoms: C_8  and  C_9
REMARK    8  A    between atoms: C_9  and  C_10
REMARK    9  A    between atoms: C_11  and  C_12
REMARK   10  A    between atoms: C_12  and  C_13
REMARK   11  A    between atoms: C_14  and  C_15
REMARK   12  A    between atoms: C_15  and  C_16
REMARK   13  A    between atoms: C_17  and  C_18
REMARK   14  A    between atoms: C_20  and  O_21
REMARK   15  A    between atoms: O_21  and  C_23
REMARK                            x       y       z     vdW  Elec       q    Type
REMARK                         _______ _______ _______ _____ _____    ______ ____
ROOT
ATOM      1  C   UNL     1     139.761 114.000 165.266  0.00  0.00    +0.000 C 
ATOM      2  C   UNL     1     139.781 114.777 164.990  0.00  0.00    +0.000 C 
ENDROOT
BRANCH   1   3
ATOM      3  C   UNL     1     140.301 113.446 164.980  0.00  0.00    +0.000 C 
BRANCH   3   5
ATOM      4  C   UNL     1     140.851 112.129 165.062  0.00  0.00    +0.000 C 
ATOM      5  C   UNL     1     140.473 112.770 165.420  0.00  0.00    +0.000 C 
BRANCH   4   6
ATOM      6  C   UNL     1     141.057 112.166 164.265  0.00  0.00    +0.000 C 
BRANCH   6   7
ATOM      7  C   UNL     1     141.597 111.624 163.953  0.00  0.00    +0.000 C 
BRANCH   7   8
ATOM      8  C   UNL     1     141.716 111.583 163.138  0.00  0.00    +0.000 C 
BRANCH   8   9
ATOM      9  C   UNL     1     142.328 111.120 162.833  0.00  0.00    +0.000 C 
ATOM     10  O   UNL     1     143.113 111.352 162.939  0.00  0.00    +0.000 OA
BRANCH   9  11
ATOM     11  O   UNL     1     142.154 110.426 162.423  0.00  0.00    +0.000 OA
BRANCH  11  12
ATOM     12  C   UNL     1     142.674 110.147 161.846  0.00  0.00    +0.000 C 
ATOM     13  C   UNL     1     142.502 109.452 161.437  0.00  0.00    +0.000 C 
ENDBRANCH  11  12
ENDBRANCH   9  11
ENDBRANCH   8   9
ENDBRANCH   7   8
ENDBRANCH   6   7
ENDBRANCH   4   6
ENDBRANCH   3   5
ENDBRANCH   1   3
BRANCH   2  14
ATOM     14  C   UNL     1     140.340 115.001 164.428  0.00  0.00    +0.000 C 
BRANCH  14  15
ATOM     15  C   UNL     1     140.259 115.718 164.028  0.00  0.00    +0.000 C 
ATOM     16  C   UNL     1     140.898 116.031 163.611  0.00  0.00    +0.000 C 
BRANCH  16  17
ATOM     17  C   UNL     1     141.618 115.629 163.594  0.00  0.00    +0.000 C 
BRANCH  17  18
ATOM     18  C   UNL     1     142.131 115.727 162.955  0.00  0.00    +0.000 C 
ATOM     19  C   UNL     1     142.930 115.542 163.036  0.00  0.00    +0.000 C 
BRANCH  19  20
ATOM     20  C   UNL     1     143.218 115.259 163.755  0.00  0.00    +0.000 C 
BRANCH  20  21
ATOM     21  C   UNL     1     144.003 115.396 163.968  0.00  0.00    +0.000 C 
ATOM     22  C   UNL     1     144.389 114.877 164.479  0.00  0.00    +0.000 C 
BRANCH  22  23
ATOM     23  C   UNL     1     143.989 114.220 164.779  0.00  0.00    +0.000 C 
ATOM     24  C   UNL     1     144.360 113.727 165.327  0.00  0.00    +0.000 C 
ENDBRANCH  22  23
ENDBRANCH  20  21
ENDBRANCH  19  20
ENDBRANCH  17  18
ENDBRANCH  16  17
ENDBRANCH  14  15
ENDBRANCH   2  14
TORSDOF 15
ENDMDL
MODEL 11
REMARK VINA RESULT:      -7.5     42.679     44.748
REMARK  Name = 
REMARK  15 active torsions:
REMARK  status: ('A' for Active; 'I' for Inactive)
REMARK    1  A    between atoms: C_1  and  C_4
REMARK    2  A    between atoms: C_2  and  C_3
REMARK    3  A    between atoms: C_3  and  C_7
REMARK    4  A    between atoms: C_4  and  C_5
REMARK    5  A    between atoms: C_5  and  C_6
REMARK    6  A    between atoms: C_6  and  C_20
REMARK    7  A    between atoms: C_8  and  C_9
REMARK    8  A    between atoms: C_9  and  C_10
REMARK    9  A    between atoms: C_11  and  C_12
REMARK   10  A    between atoms: C_12  and  C_13
REMARK   11  A    between atoms: C_14  and  C_15
REMARK   12  A    between atoms: C_15  and  C_16
REMARK   13  A    between atoms: C_17  and  C_18
REMARK   14  A    between atoms: C_20  and  O_21
REMARK   15  A    between atoms: O_21  and  C_23
REMARK                            x       y       z     vdW  Elec       q    Type
REMARK                         _______ _______ _______ _____ _____    ______ ____
ROOT
ATOM      1  C   UNL     1     105.607 139.574 160.756  0.00  0.00    +0.000 C 
ATOM      2  C   UNL     1     105.432 139.065 161.381  0.00  0.00    +0.000 C 
ENDROOT
BRANCH   1   3
ATOM      3  C   UNL     1     106.033 140.267 160.894  0.00  0.00    +0.000 C 
BRANCH   3   5
ATOM      4  C   UNL     1     106.666 141.380 160.257  0.00  0.00    +0.000 C 
ATOM      5  C   UNL     1     106.535 140.566 160.311  0.00  0.00    +0.000 C 
BRANCH   4   6
ATOM      6  C   UNL     1     106.294 141.893 160.785  0.00  0.00    +0.000 C 
BRANCH   6   7
ATOM      7  C   UNL     1     106.573 142.665 160.875  0.00  0.00    +0.000 C 
BRANCH   7   8
ATOM      8  C   UNL     1     106.040 143.284 160.994  0.00  0.00    +0.000 C 
BRANCH   8   9
ATOM      9  C   UNL     1     106.315 144.021 161.243  0.00  0.00    +0.000 C 
ATOM     10  O   UNL     1     106.825 144.075 161.889  0.00  0.00    +0.000 OA
BRANCH   9  11
ATOM     11  O   UNL     1     106.079 144.704 160.845  0.00  0.00    +0.000 OA
BRANCH  11  12
ATOM     12  C   UNL     1     105.878 145.382 161.271  0.00  0.00    +0.000 C 
ATOM     13  C   UNL     1     105.642 146.064 160.874  0.00  0.00    +0.000 C 
ENDBRANCH  11  12
ENDBRANCH   9  11
ENDBRANCH   8   9
ENDBRANCH   7   8
ENDBRANCH   6   7
ENDBRANCH   4   6
ENDBRANCH   3   5
ENDBRANCH   1   3
BRANCH   2  14
ATOM     14  C   UNL     1     105.683 139.249 162.144  0.00  0.00    +0.000 C 
BRANCH  14  15
ATOM     15  C   UNL     1     105.575 138.706 162.756  0.00  0.00    +0.000 C 
ATOM     16  C   UNL     1     105.759 138.918 163.532  0.00  0.00    +0.000 C 
BRANCH  16  17
ATOM     17  C   UNL     1     106.050 139.671 163.697  0.00  0.00    +0.000 C 
BRANCH  17  18
ATOM     18  C   UNL     1     105.958 139.995 164.450  0.00  0.00    +0.000 C 
ATOM     19  C   UNL     1     106.461 140.596 164.706  0.00  0.00    +0.000 C 
BRANCH  19  20
ATOM     20  C   UNL     1     107.057 140.875 164.208  0.00  0.00    +0.000 C 
BRANCH  20  21
ATOM     21  C   UNL     1     107.410 141.605 164.357  0.00  0.00    +0.000 C 
ATOM     22  C   UNL     1     108.149 141.780 164.037  0.00  0.00    +0.000 C 
BRANCH  22  23
ATOM     23  C   UNL     1     108.536 141.223 163.567  0.00  0.00    +0.000 C 
ATOM     24  C   UNL     1     109.261 141.411 163.218  0.00  0.00    +0.000 C 
ENDBRANCH  22  23
ENDBRANCH  20  21
ENDBRANCH  19  20
ENDBRANCH  17  18
ENDBRANCH  16  17
ENDBRANCH  14  15
ENDBRANCH   2  14
TORSDOF 15
ENDMDL
MODEL 12
REMARK VINA RESULT:      -7.5     43.769     45.140
REMARK  Name = 
REMARK  15 active torsions:
REMARK  status: ('A' for Active; 'I' for Inactive)
REMARK    1  A    between atoms: C_1  and  C_4
REMARK    2  A    between atoms: C_2  and  C_3
REMARK    3  A    between atoms: C_3  and  C_7
REMARK    4  A    between atoms: C_4  and  C_5
REMARK    5  A    between atoms: C_5  and  C_6
REMARK    6  A    between atoms: C_6  and  C_20
REMARK    7  A    between atoms: C_8  and  C_9
REMARK    8  A    between atoms: C_9  and  C_10
REMARK    9  A    between atoms: C_11  and  C_12
REMARK   10  A    between atoms: C_12  and  C_13
REMARK   11  A    between atoms: C_14  and  C_15
REMARK   12  A    between atoms: C_15  and  C_16
REMARK   13  A    between atoms: C_17  and  C_18
REMARK   14  A    between atoms: C_20  and  O_21
REMARK   15  A    between atoms: O_21  and  C_23
REMARK                            x       y       z     vdW  Elec       q    Type
REMARK                         _______ _______ _______ _____ _____    ______ ____
ROOT
ATOM      1  C   UNL     1     108.139 141.811 163.546  0.00  0.00    +0.000 C 
ATOM      2  C   UNL     1     108.171 141.734 162.725  0.00  0.00    +0.000 C 
ENDROOT
BRANCH   1   3
ATOM      3  C   UNL     1     107.410 141.875 163.926  0.00  0.00    +0.000 C 
BRANCH   3   5
ATOM      4  C   UNL     1     106.746 141.871 165.192  0.00  0.00    +0.000 C 
ATOM      5  C   UNL     1     107.306 141.551 164.677  0.00  0.00    +0.000 C 
BRANCH   4   6
ATOM      6  C   UNL     1     106.290 142.517 164.955  0.00  0.00    +0.000 C 
BRANCH   6   7
ATOM      7  C   UNL     1     105.681 142.792 165.439  0.00  0.00    +0.000 C 
BRANCH   7   8
ATOM      8  C   UNL     1     105.305 143.504 165.263  0.00  0.00    +0.000 C 
BRANCH   8   9
ATOM      9  C   UNL     1     104.716 143.794 165.764  0.00  0.00    +0.000 C 
ATOM     10  O   UNL     1     104.094 143.304 165.997  0.00  0.00    +0.000 OA
BRANCH   9  11
ATOM     11  O   UNL     1     104.750 144.574 166.032  0.00  0.00    +0.000 OA
BRANCH  11  12
ATOM     12  C   UNL     1     104.060 144.958 166.271  0.00  0.00    +0.000 C 
ATOM     13  C   UNL     1     104.092 145.740 166.530  0.00  0.00    +0.000 C 
ENDBRANCH  11  12
ENDBRANCH   9  11
ENDBRANCH   8   9
ENDBRANCH   7   8
ENDBRANCH   6   7
ENDBRANCH   4   6
ENDBRANCH   3   5
ENDBRANCH   1   3
BRANCH   2  14
ATOM     14  C   UNL     1     107.475 141.721 162.285  0.00  0.00    +0.000 C 
BRANCH  14  15
ATOM     15  C   UNL     1     107.477 141.980 161.501  0.00  0.00    +0.000 C 
ATOM     16  C   UNL     1     106.975 141.627 160.949  0.00  0.00    +0.000 C 
BRANCH  16  17
ATOM     17  C   UNL     1     106.472 141.016 161.180  0.00  0.00    +0.000 C 
BRANCH  17  18
ATOM     18  C   UNL     1     105.860 140.775 160.682  0.00  0.00    +0.000 C 
ATOM     19  C   UNL     1     105.450 140.078 160.840  0.00  0.00    +0.000 C 
BRANCH  19  20
ATOM     20  C   UNL     1     105.651 139.620 161.496  0.00  0.00    +0.000 C 
BRANCH  20  21
ATOM     21  C   UNL     1     105.419 138.829 161.534  0.00  0.00    +0.000 C 
ATOM     22  C   UNL     1     105.379 138.445 162.262  0.00  0.00    +0.000 C 
BRANCH  22  23
ATOM     23  C   UNL     1     105.572 138.852 162.954  0.00  0.00    +0.000 C 
ATOM     24  C   UNL     1     105.503 138.475 163.685  0.00  0.00    +0.000 C 
ENDBRANCH  22  23
ENDBRANCH  20  21
ENDBRANCH  19  20
ENDBRANCH  17  18
ENDBRANCH  16  17
ENDBRANCH  14  15
ENDBRANCH   2  14
TORSDOF 15
ENDMDL
MODEL 13
REMARK VINA RESULT:      -7.4     43.823     44.682
REMARK  Name = 
REMARK  15 active torsions:
REMARK  status: ('A' for Active; 'I' for Inactive)
REMARK    1  A    between atoms: C_1  and  C_4
REMARK    2  A    between atoms: C_2  and  C_3
REMARK    3  A    between atoms: C_3  and  C_7
REMARK    4  A    between atoms: C_4  and  C_5
REMARK    5  A    between atoms: C_5  and  C_6
REMARK    6  A    between atoms: C_6  and  C_20
REMARK    7  A    between atoms: C_8  and  C_9
REMARK    8  A    between atoms: C_9  and  C_10
REMARK    9  A    between atoms: C_11  and  C_12
REMARK   10  A    between atoms: C_12  and  C_13
REMARK   11  A    between atoms: C_14  and  C_15
REMARK   12  A    between atoms: C_15  and  C_16
REMARK   13  A    between atoms: C_17  and  C_18
REMARK   14  A    between atoms: C_20  and  O_21
REMARK   15  A    between atoms: O_21  and  C_23
REMARK                            x       y       z     vdW  Elec       q    Type
REMARK                         _______ _______ _______ _____ _____    ______ ____
ROOT
ATOM      1  C   UNL     1     107.514 141.588 161.701  0.00  0.00    +0.000 C 
ATOM      2  C   UNL     1     107.693 142.181 162.245  0.00  0.00    +0.000 C 
ENDROOT
BRANCH   1   3
ATOM      3  C   UNL     1     106.734 141.334 161.608  0.00  0.00    +0.000 C 
BRANCH   3   5
ATOM      4  C   UNL     1     105.977 140.491 160.737  0.00  0.00    +0.000 C 
ATOM      5  C   UNL     1     106.443 141.162 160.856  0.00  0.00    +0.000 C 
BRANCH   4   6
ATOM      6  C   UNL     1     105.803 139.993 161.371  0.00  0.00    +0.000 C 
BRANCH   6   7
ATOM      7  C   UNL     1     105.276 139.365 161.270  0.00  0.00    +0.000 C 
BRANCH   7   8
ATOM      8  C   UNL     1     105.245 138.760 161.830  0.00  0.00    +0.000 C 
BRANCH   8   9
ATOM      9  C   UNL     1     104.650 138.189 161.786  0.00  0.00    +0.000 C 
ATOM     10  O   UNL     1     104.558 137.740 161.100  0.00  0.00    +0.000 OA
BRANCH   9  11
ATOM     11  O   UNL     1     104.148 138.068 162.429  0.00  0.00    +0.000 OA
BRANCH  11  12
ATOM     12  C   UNL     1     103.862 137.312 162.594  0.00  0.00    +0.000 C 
ATOM     13  C   UNL     1     103.627 137.117 163.359  0.00  0.00    +0.000 C 
ENDBRANCH  11  12
ENDBRANCH   9  11
ENDBRANCH   8   9
ENDBRANCH   7   8
ENDBRANCH   6   7
ENDBRANCH   4   6
ENDBRANCH   3   5
ENDBRANCH   1   3
BRANCH   2  14
ATOM     14  C   UNL     1     107.092 142.521 162.697  0.00  0.00    +0.000 C 
BRANCH  14  15
ATOM     15  C   UNL     1     107.131 143.320 162.899  0.00  0.00    +0.000 C 
ATOM     16  C   UNL     1     106.812 143.580 163.614  0.00  0.00    +0.000 C 
BRANCH  16  17
ATOM     17  C   UNL     1     106.456 143.042 164.127  0.00  0.00    +0.000 C 
BRANCH  17  18
ATOM     18  C   UNL     1     106.021 143.313 164.774  0.00  0.00    +0.000 C 
ATOM     19  C   UNL     1     105.807 142.792 165.375  0.00  0.00    +0.000 C 
BRANCH  19  20
ATOM     20  C   UNL     1     106.027 141.998 165.331  0.00  0.00    +0.000 C 
BRANCH  20  21
ATOM     21  C   UNL     1     106.001 141.525 166.007  0.00  0.00    +0.000 C 
ATOM     22  C   UNL     1     105.977 140.704 165.935  0.00  0.00    +0.000 C 
BRANCH  22  23
ATOM     23  C   UNL     1     105.979 140.355 165.188  0.00  0.00    +0.000 C 
ATOM     24  C   UNL     1     105.961 139.533 165.117  0.00  0.00    +0.000 C 
ENDBRANCH  22  23
ENDBRANCH  20  21
ENDBRANCH  19  20
ENDBRANCH  17  18
ENDBRANCH  16  17
ENDBRANCH  14  15
ENDBRANCH   2  14
TORSDOF 15
ENDMDL
MODEL 14
REMARK VINA RESULT:      -7.4     42.505     44.644
REMARK  Name = 
REMARK  15 active torsions:
REMARK  status: ('A' for Active; 'I' for Inactive)
REMARK    1  A    between atoms: C_1  and  C_4
REMARK    2  A    between atoms: C_2  and  C_3
REMARK    3  A    between atoms: C_3  and  C_7
REMARK    4  A    between atoms: C_4  and  C_5
REMARK    5  A    between atoms: C_5  and  C_6
REMARK    6  A    between atoms: C_6  and  C_20
REMARK    7  A    between atoms: C_8  and  C_9
REMARK    8  A    between atoms: C_9  and  C_10
REMARK    9  A    between atoms: C_11  and  C_12
REMARK   10  A    between atoms: C_12  and  C_13
REMARK   11  A    between atoms: C_14  and  C_15
REMARK   12  A    between atoms: C_15  and  C_16
REMARK   13  A    between atoms: C_17  and  C_18
REMARK   14  A    between atoms: C_20  and  O_21
REMARK   15  A    between atoms: O_21  and  C_23
REMARK                            x       y       z     vdW  Elec       q    Type
REMARK                         _______ _______ _______ _____ _____    ______ ____
ROOT
ATOM      1  C   UNL     1     106.545 141.813 159.862  0.00  0.00    +0.000 C 
ATOM      2  C   UNL     1     106.660 142.613 160.028  0.00  0.00    +0.000 C 
ENDROOT
BRANCH   1   3
ATOM      3  C   UNL     1     106.153 141.330 160.404  0.00  0.00    +0.000 C 
BRANCH   3   5
ATOM      4  C   UNL     1     105.453 140.100 160.605  0.00  0.00    +0.000 C 
ATOM      5  C   UNL     1     105.617 140.762 160.139  0.00  0.00    +0.000 C 
BRANCH   4   6
ATOM      6  C   UNL     1     105.825 140.009 161.335  0.00  0.00    +0.000 C 
BRANCH   6   7
ATOM      7  C   UNL     1     105.816 139.275 161.713  0.00  0.00    +0.000 C 
BRANCH   7   8
ATOM      8  C   UNL     1     105.350 139.163 162.385  0.00  0.00    +0.000 C 
BRANCH   8   9
ATOM      9  C   UNL     1     105.257 138.406 162.701  0.00  0.00    +0.000 C 
ATOM     10  O   UNL     1     105.296 137.746 162.209  0.00  0.00    +0.000 OA
BRANCH   9  11
ATOM     11  O   UNL     1     105.126 138.311 163.510  0.00  0.00    +0.000 OA
BRANCH  11  12
ATOM     12  C   UNL     1     104.569 137.763 163.776  0.00  0.00    +0.000 C 
ATOM     13  C   UNL     1     104.314 137.779 164.559  0.00  0.00    +0.000 C 
ENDBRANCH  11  12
ENDBRANCH   9  11
ENDBRANCH   8   9
ENDBRANCH   7   8
ENDBRANCH   6   7
ENDBRANCH   4   6
ENDBRANCH   3   5
ENDBRANCH   1   3
BRANCH   2  14
ATOM     14  C   UNL     1     106.383 142.930 160.737  0.00  0.00    +0.000 C 
BRANCH  14  15
ATOM     15  C   UNL     1     106.257 143.742 160.803  0.00  0.00    +0.000 C 
ATOM     16  C   UNL     1     106.351 144.116 161.533  0.00  0.00    +0.000 C 
BRANCH  16  17
ATOM     17  C   UNL     1     106.571 143.678 162.196  0.00  0.00    +0.000 C 
BRANCH  17  18
ATOM     18  C   UNL     1     106.513 144.010 162.949  0.00  0.00    +0.000 C 
ATOM     19  C   UNL     1     106.854 143.630 163.595  0.00  0.00    +0.000 C 
BRANCH  19  20
ATOM     20  C   UNL     1     107.254 142.916 163.490  0.00  0.00    +0.000 C 
BRANCH  20  21
ATOM     21  C   UNL     1     107.383 142.417 164.134  0.00  0.00    +0.000 C 
ATOM     22  C   UNL     1     107.923 141.796 164.074  0.00  0.00    +0.000 C 
BRANCH  22  23
ATOM     23  C   UNL     1     108.334 141.674 163.369  0.00  0.00    +0.000 C 
ATOM     24  C   UNL     1     108.916 141.090 163.328  0.00  0.00    +0.000 C 
ENDBRANCH  22  23
ENDBRANCH  20  21
ENDBRANCH  19  20
ENDBRANCH  17  18
ENDBRANCH  16  17
ENDBRANCH  14  15
ENDBRANCH   2  14
TORSDOF 15
ENDMDL
MODEL 15
REMARK VINA RESULT:      -7.3     42.709     44.474
REMARK  Name = 
REMARK  15 active torsions:
REMARK  status: ('A' for Active; 'I' for Inactive)
REMARK    1  A    between atoms: C_1  and  C_4
REMARK    2  A    between atoms: C_2  and  C_3
REMARK    3  A    between atoms: C_3  and  C_7
REMARK    4  A    between atoms: C_4  and  C_5
REMARK    5  A    between atoms: C_5  and  C_6
REMARK    6  A    between atoms: C_6  and  C_20
REMARK    7  A    between atoms: C_8  and  C_9
REMARK    8  A    between atoms: C_9  and  C_10
REMARK    9  A    between atoms: C_11  and  C_12
REMARK   10  A    between atoms: C_12  and  C_13
REMARK   11  A    between atoms: C_14  and  C_15
REMARK   12  A    between atoms: C_15  and  C_16
REMARK   13  A    between atoms: C_17  and  C_18
REMARK   14  A    between atoms: C_20  and  O_21
REMARK   15  A    between atoms: O_21  and  C_23
REMARK                            x       y       z     vdW  Elec       q    Type
REMARK                         _______ _______ _______ _____ _____    ______ ____
ROOT
ATOM      1  C   UNL     1     105.939 139.856 165.963  0.00  0.00    +0.000 C 
ATOM      2  C   UNL     1     105.906 140.621 166.271  0.00  0.00    +0.000 C 
ENDROOT
BRANCH   1   3
ATOM      3  C   UNL     1     105.759 139.722 165.170  0.00  0.00    +0.000 C 
BRANCH   3   5
ATOM      4  C   UNL     1     105.567 138.771 164.120  0.00  0.00    +0.000 C 
ATOM      5  C   UNL     1     105.525 138.971 164.920  0.00  0.00    +0.000 C 
BRANCH   4   6
ATOM      6  C   UNL     1     105.841 139.322 163.571  0.00  0.00    +0.000 C 
BRANCH   6   7
ATOM      7  C   UNL     1     105.858 139.130 162.768  0.00  0.00    +0.000 C 
BRANCH   7   8
ATOM      8  C   UNL     1     105.712 139.713 162.203  0.00  0.00    +0.000 C 
BRANCH   8   9
ATOM      9  C   UNL     1     105.859 139.560 161.405  0.00  0.00    +0.000 C 
ATOM     10  O   UNL     1     105.581 138.864 161.060  0.00  0.00    +0.000 OA
BRANCH   9  11
ATOM     11  O   UNL     1     106.286 140.102 160.953  0.00  0.00    +0.000 OA
BRANCH  11  12
ATOM     12  C   UNL     1     105.913 140.516 160.344  0.00  0.00    +0.000 C 
ATOM     13  C   UNL     1     106.344 141.039 159.876  0.00  0.00    +0.000 C 
ENDBRANCH  11  12
ENDBRANCH   9  11
ENDBRANCH   8   9
ENDBRANCH   7   8
ENDBRANCH   6   7
ENDBRANCH   4   6
ENDBRANCH   3   5
ENDBRANCH   1   3
BRANCH   2  14
ATOM     14  C   UNL     1     105.694 141.252 165.785  0.00  0.00    +0.000 C 
BRANCH  14  15
ATOM     15  C   UNL     1     105.379 141.939 166.115  0.00  0.00    +0.000 C 
ATOM     16  C   UNL     1     105.501 142.667 165.746  0.00  0.00    +0.000 C 
BRANCH  16  17
ATOM     17  C   UNL     1     105.938 142.708 165.048  0.00  0.00    +0.000 C 
BRANCH  17  18
ATOM     18  C   UNL     1     105.936 143.401 164.599  0.00  0.00    +0.000 C 
ATOM     19  C   UNL     1     106.466 143.489 163.973  0.00  0.00    +0.000 C 
BRANCH  19  20
ATOM     20  C   UNL     1     106.997 142.884 163.795  0.00  0.00    +0.000 C 
BRANCH  20  21
ATOM     21  C   UNL     1     107.356 142.856 163.052  0.00  0.00    +0.000 C 
ATOM     22  C   UNL     1     107.996 142.353 162.921  0.00  0.00    +0.000 C 
BRANCH  22  23
ATOM     23  C   UNL     1     108.278 141.877 163.533  0.00  0.00    +0.000 C 
ATOM     24  C   UNL     1     108.892 141.344 163.391  0.00  0.00    +0.000 C 
ENDBRANCH  22  23
ENDBRANCH  20  21
ENDBRANCH  19  20
ENDBRANCH  17  18
ENDBRANCH  16  17
ENDBRANCH  14  15
ENDBRANCH   2  14
TORSDOF 15
ENDMDL
MODEL 16
REMARK VINA RESULT:      -7.0     43.758     45.158
REMARK  Name = 
REMARK  15 active torsions:
REMARK  status: ('A' for Active; 'I' for Inactive)
REMARK    1  A    between atoms: C_1  and  C_4
REMARK    2  A    between atoms: C_2  and  C_3
REMARK    3  A    between atoms: C_3  and  C_7
REMARK    4  A    between atoms: C_4  and  C_5
REMARK    5  A    between atoms: C_5  and  C_6
REMARK    6  A    between atoms: C_6  and  C_20
REMARK    7  A    between atoms: C_8  and  C_9
REMARK    8  A    between atoms: C_9  and  C_10
REMARK    9  A    between atoms: C_11  and  C_12
REMARK   10  A    between atoms: C_12  and  C_13
REMARK   11  A    between atoms: C_14  and  C_15
REMARK   12  A    between atoms: C_15  and  C_16
REMARK   13  A    between atoms: C_17  and  C_18
REMARK   14  A    between atoms: C_20  and  O_21
REMARK   15  A    between atoms: O_21  and  C_23
REMARK                            x       y       z     vdW  Elec       q    Type
REMARK                         _______ _______ _______ _____ _____    ______ ____
ROOT
ATOM      1  C   UNL     1     107.886 142.125 163.787  0.00  0.00    +0.000 C 
ATOM      2  C   UNL     1     107.787 141.326 163.964  0.00  0.00    +0.000 C 
ENDROOT
BRANCH   1   3
ATOM      3  C   UNL     1     107.266 142.554 163.451  0.00  0.00    +0.000 C 
BRANCH   3   5
ATOM      4  C   UNL     1     106.845 143.868 163.079  0.00  0.00    +0.000 C 
ATOM      5  C   UNL     1     107.166 143.351 163.637  0.00  0.00    +0.000 C 
BRANCH   4   6
ATOM      6  C   UNL     1     106.624 143.587 162.336  0.00  0.00    +0.000 C 
BRANCH   6   7
ATOM      7  C   UNL     1     106.123 144.036 161.857  0.00  0.00    +0.000 C 
BRANCH   7   8
ATOM      8  C   UNL     1     106.334 144.195 161.076  0.00  0.00    +0.000 C 
BRANCH   8   9
ATOM      9  C   UNL     1     105.748 144.309 160.506  0.00  0.00    +0.000 C 
ATOM     10  O   UNL     1     104.955 144.343 160.731  0.00  0.00    +0.000 OA
BRANCH   9  11
ATOM     11  O   UNL     1     105.955 144.388 159.711  0.00  0.00    +0.000 OA
BRANCH  11  12
ATOM     12  C   UNL     1     105.368 144.450 159.135  0.00  0.00    +0.000 C 
ATOM     13  C   UNL     1     105.575 144.543 158.343  0.00  0.00    +0.000 C 
ENDBRANCH  11  12
ENDBRANCH   9  11
ENDBRANCH   8   9
ENDBRANCH   7   8
ENDBRANCH   6   7
ENDBRANCH   4   6
ENDBRANCH   3   5
ENDBRANCH   1   3
BRANCH   2  14
ATOM     14  C   UNL     1     107.069 140.954 163.804  0.00  0.00    +0.000 C 
BRANCH  14  15
ATOM     15  C   UNL     1     106.798 140.351 164.298  0.00  0.00    +0.000 C 
ATOM     16  C   UNL     1     106.353 139.731 163.984  0.00  0.00    +0.000 C 
BRANCH  16  17
ATOM     17  C   UNL     1     106.178 139.714 163.179  0.00  0.00    +0.000 C 
BRANCH  17  18
ATOM     18  C   UNL     1     105.774 139.070 162.857  0.00  0.00    +0.000 C 
ATOM     19  C   UNL     1     105.536 139.085 162.068  0.00  0.00    +0.000 C 
BRANCH  19  20
ATOM     20  C   UNL     1     105.702 139.743 161.599  0.00  0.00    +0.000 C 
BRANCH  20  21
ATOM     21  C   UNL     1     105.240 139.902 160.934  0.00  0.00    +0.000 C 
ATOM     22  C   UNL     1     105.551 140.345 160.312  0.00  0.00    +0.000 C 
BRANCH  22  23
ATOM     23  C   UNL     1     106.325 140.628 160.354  0.00  0.00    +0.000 C 
ATOM     24  C   UNL     1     106.681 140.954 159.684  0.00  0.00    +0.000 C 
ENDBRANCH  22  23
ENDBRANCH  20  21
ENDBRANCH  19  20
ENDBRANCH  17  18
ENDBRANCH  16  17
ENDBRANCH  14  15
ENDBRANCH   2  14
TORSDOF 15
ENDMDL
MODEL 17
REMARK VINA RESULT:      -7.0     43.362     44.150
REMARK  Name = 
REMARK  15 active torsions:
REMARK  status: ('A' for Active; 'I' for Inactive)
REMARK    1  A    between atoms: C_1  and  C_4
REMARK    2  A    between atoms: C_2  and  C_3
REMARK    3  A    between atoms: C_3  and  C_7
REMARK    4  A    between atoms: C_4  and  C_5
REMARK    5  A    between atoms: C_5  and  C_6
REMARK    6  A    between atoms: C_6  and  C_20
REMARK    7  A    between atoms: C_8  and  C_9
REMARK    8  A    between atoms: C_9  and  C_10
REMARK    9  A    between atoms: C_11  and  C_12
REMARK   10  A    between atoms: C_12  and  C_13
REMARK   11  A    between atoms: C_14  and  C_15
REMARK   12  A    between atoms: C_15  and  C_16
REMARK   13  A    between atoms: C_17  and  C_18
REMARK   14  A    between atoms: C_20  and  O_21
REMARK   15  A    between atoms: O_21  and  C_23
REMARK                            x       y       z     vdW  Elec       q    Type
REMARK                         _______ _______ _______ _____ _____    ______ ____
ROOT
ATOM      1  C   UNL     1     105.405 140.111 160.836  0.00  0.00    +0.000 C 
ATOM      2  C   UNL     1     105.848 140.804 160.773  0.00  0.00    +0.000 C 
ENDROOT
BRANCH   1   3
ATOM      3  C   UNL     1     105.612 139.537 161.391  0.00  0.00    +0.000 C 
BRANCH   3   5
ATOM      4  C   UNL     1     105.273 138.205 161.785  0.00  0.00    +0.000 C 
ATOM      5  C   UNL     1     105.532 138.737 161.208  0.00  0.00    +0.000 C 
BRANCH   4   6
ATOM      6  C   UNL     1     105.095 138.475 162.544  0.00  0.00    +0.000 C 
BRANCH   6   7
ATOM      7  C   UNL     1     104.515 138.094 162.991  0.00  0.00    +0.000 C 
BRANCH   7   8
ATOM      8  C   UNL     1     104.711 137.757 163.718  0.00  0.00    +0.000 C 
BRANCH   8   9
ATOM      9  C   UNL     1     104.114 137.549 164.249  0.00  0.00    +0.000 C 
ATOM     10  O   UNL     1     103.744 138.130 164.703  0.00  0.00    +0.000 OA
BRANCH   9  11
ATOM     11  O   UNL     1     103.889 136.759 164.326  0.00  0.00    +0.000 OA
BRANCH  11  12
ATOM     12  C   UNL     1     103.425 136.522 164.966  0.00  0.00    +0.000 C 
ATOM     13  C   UNL     1     103.158 135.744 165.017  0.00  0.00    +0.000 C 
ENDBRANCH  11  12
ENDBRANCH   9  11
ENDBRANCH   8   9
ENDBRANCH   7   8
ENDBRANCH   6   7
ENDBRANCH   4   6
ENDBRANCH   3   5
ENDBRANCH   1   3
BRANCH   2  14
ATOM     14  C   UNL     1     106.497 140.924 161.266  0.00  0.00    +0.000 C 
BRANCH  14  15
ATOM     15  C   UNL     1     107.067 141.486 161.067  0.00  0.00    +0.000 C 
ATOM     16  C   UNL     1     107.579 141.777 161.645  0.00  0.00    +0.000 C 
BRANCH  16  17
ATOM     17  C   UNL     1     107.521 141.505 162.422  0.00  0.00    +0.000 C 
BRANCH  17  18
ATOM     18  C   UNL     1     108.169 141.564 162.929  0.00  0.00    +0.000 C 
ATOM     19  C   UNL     1     108.054 141.584 163.745  0.00  0.00    +0.000 C 
BRANCH  19  20
ATOM     20  C   UNL     1     107.290 141.546 164.055  0.00  0.00    +0.000 C 
BRANCH  20  21
ATOM     21  C   UNL     1     107.101 141.969 164.738  0.00  0.00    +0.000 C 
ATOM     22  C   UNL     1     106.596 141.640 165.300  0.00  0.00    +0.000 C 
BRANCH  22  23
ATOM     23  C   UNL     1     106.279 140.888 165.181  0.00  0.00    +0.000 C 
ATOM     24  C   UNL     1     105.791 140.550 165.754  0.00  0.00    +0.000 C 
ENDBRANCH  22  23
ENDBRANCH  20  21
ENDBRANCH  19  20
ENDBRANCH  17  18
ENDBRANCH  16  17
ENDBRANCH  14  15
ENDBRANCH   2  14
TORSDOF 15
ENDMDL
MODEL 18
REMARK VINA RESULT:      -7.0     42.565     44.371
REMARK  Name = 
REMARK  15 active torsions:
REMARK  status: ('A' for Active; 'I' for Inactive)
REMARK    1  A    between atoms: C_1  and  C_4
REMARK    2  A    between atoms: C_2  and  C_3
REMARK    3  A    between atoms: C_3  and  C_7
REMARK    4  A    between atoms: C_4  and  C_5
REMARK    5  A    between atoms: C_5  and  C_6
REMARK    6  A    between atoms: C_6  and  C_20
REMARK    7  A    between atoms: C_8  and  C_9
REMARK    8  A    between atoms: C_9  and  C_10
REMARK    9  A    between atoms: C_11  and  C_12
REMARK   10  A    between atoms: C_12  and  C_13
REMARK   11  A    between atoms: C_14  and  C_15
REMARK   12  A    between atoms: C_15  and  C_16
REMARK   13  A    between atoms: C_17  and  C_18
REMARK   14  A    between atoms: C_20  and  O_21
REMARK   15  A    between atoms: O_21  and  C_23
REMARK                            x       y       z     vdW  Elec       q    Type
REMARK                         _______ _______ _______ _____ _____    ______ ____
ROOT
ATOM      1  C   UNL     1     105.733 138.352 162.524  0.00  0.00    +0.000 C 
ATOM      2  C   UNL     1     105.780 138.710 161.781  0.00  0.00    +0.000 C 
ENDROOT
BRANCH   1   3
ATOM      3  C   UNL     1     105.545 138.803 163.188  0.00  0.00    +0.000 C 
BRANCH   3   5
ATOM      4  C   UNL     1     105.319 138.807 164.600  0.00  0.00    +0.000 C 
ATOM      5  C   UNL     1     105.248 138.437 163.865  0.00  0.00    +0.000 C 
BRANCH   4   6
ATOM      6  C   UNL     1     105.688 139.542 164.656  0.00  0.00    +0.000 C 
BRANCH   6   7
ATOM      7  C   UNL     1     105.589 140.002 165.335  0.00  0.00    +0.000 C 
BRANCH   7   8
ATOM      8  C   UNL     1     106.013 140.704 165.423  0.00  0.00    +0.000 C 
BRANCH   8   9
ATOM      9  C   UNL     1     105.705 141.317 165.882  0.00  0.00    +0.000 C 
ATOM     10  O   UNL     1     105.249 141.145 166.548  0.00  0.00    +0.000 OA
BRANCH   9  11
ATOM     11  O   UNL     1     105.852 142.101 165.674  0.00  0.00    +0.000 OA
BRANCH  11  12
ATOM     12  C   UNL     1     105.297 142.686 165.848  0.00  0.00    +0.000 C 
ATOM     13  C   UNL     1     105.355 143.429 165.496  0.00  0.00    +0.000 C 
ENDBRANCH  11  12
ENDBRANCH   9  11
ENDBRANCH   8   9
ENDBRANCH   7   8
ENDBRANCH   6   7
ENDBRANCH   4   6
ENDBRANCH   3   5
ENDBRANCH   1   3
BRANCH   2  14
ATOM     14  C   UNL     1     105.638 139.518 161.704  0.00  0.00    +0.000 C 
BRANCH  14  15
ATOM     15  C   UNL     1     105.348 139.820 160.993  0.00  0.00    +0.000 C 
ATOM     16  C   UNL     1     105.598 140.559 160.726  0.00  0.00    +0.000 C 
BRANCH  16  17
ATOM     17  C   UNL     1     106.138 140.997 161.169  0.00  0.00    +0.000 C 
BRANCH  17  18
ATOM     18  C   UNL     1     106.348 141.759 160.930  0.00  0.00    +0.000 C 
ATOM     19  C   UNL     1     106.899 142.191 161.365  0.00  0.00    +0.000 C 
BRANCH  19  20
ATOM     20  C   UNL     1     107.243 141.861 162.039  0.00  0.00    +0.000 C 
BRANCH  20  21
ATOM     21  C   UNL     1     107.505 142.351 162.649  0.00  0.00    +0.000 C 
ATOM     22  C   UNL     1     108.127 142.111 163.133  0.00  0.00    +0.000 C 
BRANCH  22  23
ATOM     23  C   UNL     1     108.489 141.380 163.007  0.00  0.00    +0.000 C 
ATOM     24  C   UNL     1     109.083 141.121 163.518  0.00  0.00    +0.000 C 
ENDBRANCH  22  23
ENDBRANCH  20  21
ENDBRANCH  19  20
ENDBRANCH  17  18
ENDBRANCH  16  17
ENDBRANCH  14  15
ENDBRANCH   2  14
TORSDOF 15
ENDMDL
MODEL 19
REMARK VINA RESULT:      -7.0     43.604     44.499
REMARK  Name = 
REMARK  15 active torsions:
REMARK  status: ('A' for Active; 'I' for Inactive)
REMARK    1  A    between atoms: C_1  and  C_4
REMARK    2  A    between atoms: C_2  and  C_3
REMARK    3  A    between atoms: C_3  and  C_7
REMARK    4  A    between atoms: C_4  and  C_5
REMARK    5  A    between atoms: C_5  and  C_6
REMARK    6  A    between atoms: C_6  and  C_20
REMARK    7  A    between atoms: C_8  and  C_9
REMARK    8  A    between atoms: C_9  and  C_10
REMARK    9  A    between atoms: C_11  and  C_12
REMARK   10  A    between atoms: C_12  and  C_13
REMARK   11  A    between atoms: C_14  and  C_15
REMARK   12  A    between atoms: C_15  and  C_16
REMARK   13  A    between atoms: C_17  and  C_18
REMARK   14  A    between atoms: C_20  and  O_21
REMARK   15  A    between atoms: O_21  and  C_23
REMARK                            x       y       z     vdW  Elec       q    Type
REMARK                         _______ _______ _______ _____ _____    ______ ____
ROOT
ATOM      1  C   UNL     1     108.016 141.923 162.536  0.00  0.00    +0.000 C 
ATOM      2  C   UNL     1     107.897 141.649 161.766  0.00  0.00    +0.000 C 
ENDROOT
BRANCH   1   3
ATOM      3  C   UNL     1     107.372 142.150 162.998  0.00  0.00    +0.000 C 
BRANCH   3   5
ATOM      4  C   UNL     1     107.089 142.757 164.261  0.00  0.00    +0.000 C 
ATOM      5  C   UNL     1     107.439 142.790 163.513  0.00  0.00    +0.000 C 
BRANCH   4   6
ATOM      6  C   UNL     1     106.672 142.084 164.491  0.00  0.00    +0.000 C 
BRANCH   6   7
ATOM      7  C   UNL     1     106.623 141.882 165.290  0.00  0.00    +0.000 C 
BRANCH   7   8
ATOM      8  C   UNL     1     105.903 141.637 165.609  0.00  0.00    +0.000 C 
BRANCH   8   9
ATOM      9  C   UNL     1     105.891 141.201 166.310  0.00  0.00    +0.000 C 
ATOM     10  O   UNL     1     106.517 141.259 166.844  0.00  0.00    +0.000 OA
BRANCH   9  11
ATOM     11  O   UNL     1     105.251 140.707 166.476  0.00  0.00    +0.000 OA
BRANCH  11  12
ATOM     12  C   UNL     1     105.166 140.382 167.230  0.00  0.00    +0.000 C 
ATOM     13  C   UNL     1     104.517 139.903 167.402  0.00  0.00    +0.000 C 
ENDBRANCH  11  12
ENDBRANCH   9  11
ENDBRANCH   8   9
ENDBRANCH   7   8
ENDBRANCH   6   7
ENDBRANCH   4   6
ENDBRANCH   3   5
ENDBRANCH   1   3
BRANCH   2  14
ATOM     14  C   UNL     1     107.133 141.603 161.459  0.00  0.00    +0.000 C 
BRANCH  14  15
ATOM     15  C   UNL     1     107.012 141.654 160.645  0.00  0.00    +0.000 C 
ATOM     16  C   UNL     1     106.431 141.192 160.285  0.00  0.00    +0.000 C 
BRANCH  16  17
ATOM     17  C   UNL     1     105.970 140.680 160.739  0.00  0.00    +0.000 C 
BRANCH  17  18
ATOM     18  C   UNL     1     105.258 140.390 160.439  0.00  0.00    +0.000 C 
ATOM     19  C   UNL     1     104.907 139.727 160.781  0.00  0.00    +0.000 C 
BRANCH  19  20
ATOM     20  C   UNL     1     105.267 139.353 161.422  0.00  0.00    +0.000 C 
BRANCH  20  21
ATOM     21  C   UNL     1     105.049 138.584 161.626  0.00  0.00    +0.000 C 
ATOM     22  C   UNL     1     105.195 138.302 162.387  0.00  0.00    +0.000 C 
BRANCH  22  23
ATOM     23  C   UNL     1     105.558 138.789 162.945  0.00  0.00    +0.000 C 
ATOM     24  C   UNL     1     105.613 138.545 163.731  0.00  0.00    +0.000 C 
ENDBRANCH  22  23
ENDBRANCH  20  21
ENDBRANCH  19  20
ENDBRANCH  17  18
ENDBRANCH  16  17
ENDBRANCH  14  15
ENDBRANCH   2  14
TORSDOF 15
ENDMDL
MODEL 20
REMARK VINA RESULT:      -6.9     43.831     46.172
REMARK  Name = 
REMARK  15 active torsions:
REMARK  status: ('A' for Active; 'I' for Inactive)
REMARK    1  A    between atoms: C_1  and  C_4
REMARK    2  A    between atoms: C_2  and  C_3
REMARK    3  A    between atoms: C_3  and  C_7
REMARK    4  A    between atoms: C_4  and  C_5
REMARK    5  A    between atoms: C_5  and  C_6
REMARK    6  A    between atoms: C_6  and  C_20
REMARK    7  A    between atoms: C_8  and  C_9
REMARK    8  A    between atoms: C_9  and  C_10
REMARK    9  A    between atoms: C_11  and  C_12
REMARK   10  A    between atoms: C_12  and  C_13
REMARK   11  A    between atoms: C_14  and  C_15
REMARK   12  A    between atoms: C_15  and  C_16
REMARK   13  A    between atoms: C_17  and  C_18
REMARK   14  A    between atoms: C_20  and  O_21
REMARK   15  A    between atoms: O_21  and  C_23
REMARK                            x       y       z     vdW  Elec       q    Type
REMARK                         _______ _______ _______ _____ _____    ______ ____
ROOT
ATOM      1  C   UNL     1     107.836 141.560 162.742  0.00  0.00    +0.000 C 
ATOM      2  C   UNL     1     107.664 141.384 161.955  0.00  0.00    +0.000 C 
ENDROOT
BRANCH   1   3
ATOM      3  C   UNL     1     107.424 142.159 163.132  0.00  0.00    +0.000 C 
BRANCH   3   5
ATOM      4  C   UNL     1     107.309 142.907 164.345  0.00  0.00    +0.000 C 
ATOM      5  C   UNL     1     107.777 142.565 163.756  0.00  0.00    +0.000 C 
BRANCH   4   6
ATOM      6  C   UNL     1     106.488 142.841 164.307  0.00  0.00    +0.000 C 
BRANCH   6   7
ATOM      7  C   UNL     1     106.038 142.888 164.998  0.00  0.00    +0.000 C 
BRANCH   7   8
ATOM      8  C   UNL     1     105.477 143.486 165.085  0.00  0.00    +0.000 C 
BRANCH   8   9
ATOM      9  C   UNL     1     104.827 143.373 165.581  0.00  0.00    +0.000 C 
ATOM     10  O   UNL     1     104.855 142.800 166.174  0.00  0.00    +0.000 OA
BRANCH   9  11
ATOM     11  O   UNL     1     104.150 143.833 165.483  0.00  0.00    +0.000 OA
BRANCH  11  12
ATOM     12  C   UNL     1     103.714 144.071 166.142  0.00  0.00    +0.000 C 
ATOM     13  C   UNL     1     103.063 144.568 166.050  0.00  0.00    +0.000 C 
ENDBRANCH  11  12
ENDBRANCH   9  11
ENDBRANCH   8   9
ENDBRANCH   7   8
ENDBRANCH   6   7
ENDBRANCH   4   6
ENDBRANCH   3   5
ENDBRANCH   1   3
BRANCH   2  14
ATOM     14  C   UNL     1     107.079 141.807 161.557  0.00  0.00    +0.000 C 
BRANCH  14  15
ATOM     15  C   UNL     1     106.729 141.490 160.880  0.00  0.00    +0.000 C 
ATOM     16  C   UNL     1     106.353 141.988 160.339  0.00  0.00    +0.000 C 
BRANCH  16  17
ATOM     17  C   UNL     1     106.327 142.800 160.474  0.00  0.00    +0.000 C 
BRANCH  17  18
ATOM     18  C   UNL     1     106.189 143.319 159.848  0.00  0.00    +0.000 C 
ATOM     19  C   UNL     1     105.936 144.089 159.997  0.00  0.00    +0.000 C 
BRANCH  19  20
ATOM     20  C   UNL     1     105.820 144.342 160.774  0.00  0.00    +0.000 C 
BRANCH  20  21
ATOM     21  C   UNL     1     105.989 145.122 160.984  0.00  0.00    +0.000 C 
ATOM     22  C   UNL     1     105.527 145.508 161.547  0.00  0.00    +0.000 C 
BRANCH  22  23
ATOM     23  C   UNL     1     104.894 145.114 161.901  0.00  0.00    +0.000 C 
ATOM     24  C   UNL     1     104.394 145.519 162.417  0.00  0.00    +0.000 C 
ENDBRANCH  22  23
ENDBRANCH  20  21
ENDBRANCH  19  20
ENDBRANCH  17  18
ENDBRANCH  16  17
ENDBRANCH  14  15
ENDBRANCH   2  14
TORSDOF 15
ENDMDL
