REMARK  Name = 
REMARK  19 active torsions:
REMARK  status: ('A' for Active; 'I' for Inactive)
REMARK    1  A    between atoms: C_11  and  C_13
REMARK    2  A    between atoms: N_19  and  C_24
REMARK    3  A    between atoms: C_24  and  C_44
REMARK    4  A    between atoms: C_37  and  C_39
REMARK    5  A    between atoms: C_61  and  C_63
REMARK    6  A    between atoms: N_69  and  C_74
REMARK    7  A    between atoms: C_74  and  C_94
REMARK    8  A    between atoms: C_87  and  C_89
REMARK    9  A    between atoms: C_89  and  C_98
REMARK   10  A    between atoms: C_110  and  C_112
REMARK   11  A    between atoms: N_118  and  C_123
REMARK   12  A    between atoms: C_123  and  C_143
REMARK   13  A    between atoms: C_136  and  C_138
REMARK   14  A    between atoms: C_138  and  C_147
REMARK   15  A    between atoms: C_156  and  C_158
REMARK   16  A    between atoms: N_164  and  C_169
REMARK   17  A    between atoms: C_169  and  C_189
REMARK   18  A    between atoms: C_182  and  C_184
REMARK   19  A    between atoms: C_184  and  C_193
REMARK                            x       y       z     vdW  Elec       q    Type
REMARK                         _______ _______ _______ _____ _____    ______ ____
ROOT
ATOM      1  S   UNL     1       0.298  -6.054   0.000  0.00  0.00    +0.000 S 
ATOM      2  O   UNL     1       0.717  -5.305   0.000  0.00  0.00    +0.000 OA
ATOM      3  O   UNL     1      -0.137  -5.305   0.000  0.00  0.00    +0.000 OA
ATOM      4  O   UNL     1       1.032  -6.474   0.000  0.00  0.00    +0.000 OA
ATOM      5  C   UNL     1      -0.436  -6.474   0.000  0.00  0.00    +0.000 C 
ENDROOT
TORSDOF 0
REMARK  Name = 
REMARK  19 active torsions:
REMARK  status: ('A' for Active; 'I' for Inactive)
REMARK    1  A    between atoms: C_11  and  C_13
REMARK    2  A    between atoms: N_19  and  C_24
REMARK    3  A    between atoms: C_24  and  C_44
REMARK    4  A    between atoms: C_37  and  C_39
REMARK    5  A    between atoms: C_61  and  C_63
REMARK    6  A    between atoms: N_69  and  C_74
REMARK    7  A    between atoms: C_74  and  C_94
REMARK    8  A    between atoms: C_87  and  C_89
REMARK    9  A    between atoms: C_89  and  C_98
REMARK   10  A    between atoms: C_110  and  C_112
REMARK   11  A    between atoms: N_118  and  C_123
REMARK   12  A    between atoms: C_123  and  C_143
REMARK   13  A    between atoms: C_136  and  C_138
REMARK   14  A    between atoms: C_138  and  C_147
REMARK   15  A    between atoms: C_156  and  C_158
REMARK   16  A    between atoms: N_164  and  C_169
REMARK   17  A    between atoms: C_169  and  C_189
REMARK   18  A    between atoms: C_182  and  C_184
REMARK   19  A    between atoms: C_184  and  C_193
REMARK                            x       y       z     vdW  Elec       q    Type
REMARK                         _______ _______ _______ _____ _____    ______ ____
ROOT
ATOM      1  C   UNL     1      -7.045   3.285   0.000  0.00  0.00    +0.000 C 
ATOM      2  C   UNL     1      -6.897   2.474   0.000  0.00  0.00    +0.000 C 
ATOM      3  N   UNL     1      -6.079   2.364   0.000  0.00  0.00    +0.000 N 
ATOM      4  C   UNL     1      -5.722   3.108   0.000  0.00  0.00    +0.000 C 
ATOM      5  O   UNL     1      -6.319   3.677   0.000  0.00  0.00    +0.000 OA
ATOM      6  O   UNL     1      -7.466   1.877   0.000  0.00  0.00    +0.000 OA
ATOM      7  C   UNL     1      -4.900   3.170   0.000  0.00  0.00    +0.000 C 
ATOM      8  N   UNL     1      -4.434   2.489   0.000  0.00  0.00    +0.000 N 
ATOM      9  C   UNL     1      -4.791   1.746   0.000  0.00  0.00    +0.000 C 
ATOM     10  C   UNL     1      -5.614   1.683   0.000  0.00  0.00    +0.000 C 
ATOM     11  C   UNL     1      -3.643   2.722   0.000  0.00  0.00    +0.000 C 
ATOM     12  C   UNL     1      -3.619   3.546   0.000  0.00  0.00    +0.000 C 
ATOM     13  C   UNL     1      -4.396   3.824   0.000  0.00  0.00    +0.000 C 
ATOM     14  O   UNL     1      -5.310   3.822   0.000  0.00  0.00    +0.000 OA
ATOM     15  O   UNL     1      -4.325   1.064   0.000  0.00  0.00    +0.000 OA
ENDROOT
BRANCH   1  17
ATOM     16  C   UNL     1      -8.588   3.210   0.000  0.00  0.00    +0.000 C 
ATOM     17  N   UNL     1      -7.794   3.645   0.000  0.00  0.00    +0.000 NA
ATOM     18  O   UNL     1      -9.457   3.704   0.000  0.00  0.00    +0.000 OA
BRANCH  16  24
ATOM     19  C   UNL     1      -9.262   1.098   0.000  0.00  0.00    +0.000 C 
ATOM     20  C   UNL     1      -9.292  -0.550   0.000  0.00  0.00    +0.000 A 
ATOM     21  C   UNL     1      -8.558   0.678   0.000  0.00  0.00    +0.000 C 
ATOM     22  C   UNL     1      -9.982   0.663   0.000  0.00  0.00    +0.000 A 
ATOM     23  N   UNL     1      -7.839   1.143   0.000  0.00  0.00    +0.000 NA
ATOM     24  C   UNL     1      -8.588   2.386   0.000  0.00  0.00    +0.000 C 
ATOM     25  C   UNL     1      -9.982  -0.145   0.000  0.00  0.00    +0.000 A 
ATOM     26  C   UNL     1      -8.573  -0.130   0.000  0.00  0.00    +0.000 C 
ATOM     27  C   UNL     1      -9.262   1.907   0.000  0.00  0.00    +0.000 C 
ATOM     28  C   UNL     1      -9.457  -1.359   0.000  0.00  0.00    +0.000 A 
ATOM     29  N   UNL     1     -10.491  -1.359   0.000  0.00  0.00    +0.000 NA
ATOM     30  C   UNL     1      -7.839   1.967   0.000  0.00  0.00    +0.000 C 
ATOM     31  C   UNL     1     -10.700  -0.550   0.000  0.00  0.00    +0.000 A 
ATOM     32  C   UNL     1     -10.700   1.068   0.000  0.00  0.00    +0.000 A 
ATOM     33  C   UNL     1      -7.105   0.768   0.000  0.00  0.00    +0.000 C 
ATOM     34  C   UNL     1     -11.405   0.663   0.000  0.00  0.00    +0.000 A 
ATOM     35  C   UNL     1     -11.405  -0.160   0.000  0.00  0.00    +0.000 A 
ENDBRANCH  16  24
ENDBRANCH   1  17
BRANCH  10  36
ATOM     36  C   UNL     1      -5.201   0.968   0.000  0.00  0.00    +0.000 C 
ATOM     37  C   UNL     1      -4.404   0.755   0.000  0.00  0.00    +0.000 C 
ATOM     38  C   UNL     1      -5.704   0.314   0.000  0.00  0.00    +0.000 C 
ENDBRANCH  10  36
BRANCH   1  39
ATOM     39  C   UNL     1      -7.045   4.110   0.000  0.00  0.00    +0.000 C 
ATOM     40  C   UNL     1      -7.629   4.693   0.000  0.00  0.00    +0.000 C 
ATOM     41  C   UNL     1      -6.462   4.693   0.000  0.00  0.00    +0.000 C 
ENDBRANCH   1  39
TORSDOF 4
REMARK  Name = 
REMARK  19 active torsions:
REMARK  status: ('A' for Active; 'I' for Inactive)
REMARK    1  A    between atoms: C_11  and  C_13
REMARK    2  A    between atoms: N_19  and  C_24
REMARK    3  A    between atoms: C_24  and  C_44
REMARK    4  A    between atoms: C_37  and  C_39
REMARK    5  A    between atoms: C_61  and  C_63
REMARK    6  A    between atoms: N_69  and  C_74
REMARK    7  A    between atoms: C_74  and  C_94
REMARK    8  A    between atoms: C_87  and  C_89
REMARK    9  A    between atoms: C_89  and  C_98
REMARK   10  A    between atoms: C_110  and  C_112
REMARK   11  A    between atoms: N_118  and  C_123
REMARK   12  A    between atoms: C_123  and  C_143
REMARK   13  A    between atoms: C_136  and  C_138
REMARK   14  A    between atoms: C_138  and  C_147
REMARK   15  A    between atoms: C_156  and  C_158
REMARK   16  A    between atoms: N_164  and  C_169
REMARK   17  A    between atoms: C_169  and  C_189
REMARK   18  A    between atoms: C_182  and  C_184
REMARK   19  A    between atoms: C_184  and  C_193
REMARK                            x       y       z     vdW  Elec       q    Type
REMARK                         _______ _______ _______ _____ _____    ______ ____
ROOT
ATOM      1  S   UNL     1      -0.683  -2.992   0.000  0.00  0.00    +0.000 S 
ATOM      2  O   UNL     1      -0.264  -2.243   0.000  0.00  0.00    +0.000 OA
ATOM      3  O   UNL     1      -1.118  -2.243   0.000  0.00  0.00    +0.000 OA
ATOM      4  O   UNL     1       0.051  -3.411   0.000  0.00  0.00    +0.000 OA
ATOM      5  C   UNL     1      -1.417  -3.411   0.000  0.00  0.00    +0.000 C 
ENDROOT
TORSDOF 0
REMARK  Name = 
REMARK  19 active torsions:
REMARK  status: ('A' for Active; 'I' for Inactive)
REMARK    1  A    between atoms: C_11  and  C_13
REMARK    2  A    between atoms: N_19  and  C_24
REMARK    3  A    between atoms: C_24  and  C_44
REMARK    4  A    between atoms: C_37  and  C_39
REMARK    5  A    between atoms: C_61  and  C_63
REMARK    6  A    between atoms: N_69  and  C_74
REMARK    7  A    between atoms: C_74  and  C_94
REMARK    8  A    between atoms: C_87  and  C_89
REMARK    9  A    between atoms: C_89  and  C_98
REMARK   10  A    between atoms: C_110  and  C_112
REMARK   11  A    between atoms: N_118  and  C_123
REMARK   12  A    between atoms: C_123  and  C_143
REMARK   13  A    between atoms: C_136  and  C_138
REMARK   14  A    between atoms: C_138  and  C_147
REMARK   15  A    between atoms: C_156  and  C_158
REMARK   16  A    between atoms: N_164  and  C_169
REMARK   17  A    between atoms: C_169  and  C_189
REMARK   18  A    between atoms: C_182  and  C_184
REMARK   19  A    between atoms: C_184  and  C_193
REMARK                            x       y       z     vdW  Elec       q    Type
REMARK                         _______ _______ _______ _____ _____    ______ ____
ROOT
ATOM      1  C   UNL     1       4.660   5.142   0.000  0.00  0.00    +0.000 C 
ATOM      2  C   UNL     1       4.808   4.331   0.000  0.00  0.00    +0.000 C 
ATOM      3  N   UNL     1       5.626   4.221   0.000  0.00  0.00    +0.000 N 
ATOM      4  C   UNL     1       5.983   4.965   0.000  0.00  0.00    +0.000 C 
ATOM      5  O   UNL     1       5.386   5.534   0.000  0.00  0.00    +0.000 OA
ATOM      6  O   UNL     1       4.239   3.734   0.000  0.00  0.00    +0.000 OA
ATOM      7  C   UNL     1       6.806   5.027   0.000  0.00  0.00    +0.000 C 
ATOM      8  N   UNL     1       7.271   4.346   0.000  0.00  0.00    +0.000 N 
ATOM      9  C   UNL     1       6.914   3.603   0.000  0.00  0.00    +0.000 C 
ATOM     10  C   UNL     1       6.092   3.540   0.000  0.00  0.00    +0.000 C 
ATOM     11  C   UNL     1       8.063   4.579   0.000  0.00  0.00    +0.000 C 
ATOM     12  C   UNL     1       8.086   5.404   0.000  0.00  0.00    +0.000 C 
ATOM     13  C   UNL     1       7.309   5.681   0.000  0.00  0.00    +0.000 C 
ATOM     14  O   UNL     1       6.396   5.679   0.000  0.00  0.00    +0.000 OA
ATOM     15  O   UNL     1       7.380   2.922   0.000  0.00  0.00    +0.000 OA
ENDROOT
BRANCH   1  17
ATOM     16  C   UNL     1       3.117   5.067   0.000  0.00  0.00    +0.000 C 
ATOM     17  N   UNL     1       3.911   5.502   0.000  0.00  0.00    +0.000 NA
ATOM     18  O   UNL     1       2.248   5.562   0.000  0.00  0.00    +0.000 OA
BRANCH  16  24
ATOM     19  C   UNL     1       2.443   2.955   0.000  0.00  0.00    +0.000 C 
ATOM     20  C   UNL     1       2.413   1.307   0.000  0.00  0.00    +0.000 A 
ATOM     21  C   UNL     1       3.147   2.536   0.000  0.00  0.00    +0.000 C 
ATOM     22  C   UNL     1       1.724   2.521   0.000  0.00  0.00    +0.000 A 
ATOM     23  N   UNL     1       3.866   3.000   0.000  0.00  0.00    +0.000 NA
ATOM     24  C   UNL     1       3.117   4.243   0.000  0.00  0.00    +0.000 C 
ATOM     25  C   UNL     1       1.724   1.712   0.000  0.00  0.00    +0.000 A 
ATOM     26  C   UNL     1       3.132   1.727   0.000  0.00  0.00    +0.000 C 
ATOM     27  C   UNL     1       2.443   3.764   0.000  0.00  0.00    +0.000 C 
ATOM     28  C   UNL     1       2.248   0.498   0.000  0.00  0.00    +0.000 A 
ATOM     29  N   UNL     1       1.215   0.498   0.000  0.00  0.00    +0.000 NA
ATOM     30  C   UNL     1       3.866   3.824   0.000  0.00  0.00    +0.000 C 
ATOM     31  C   UNL     1       1.005   1.307   0.000  0.00  0.00    +0.000 A 
ATOM     32  C   UNL     1       1.005   2.925   0.000  0.00  0.00    +0.000 A 
ATOM     33  C   UNL     1       4.600   2.626   0.000  0.00  0.00    +0.000 C 
ATOM     34  C   UNL     1       0.301   2.521   0.000  0.00  0.00    +0.000 A 
ATOM     35  C   UNL     1       0.301   1.697   0.000  0.00  0.00    +0.000 A 
ENDBRANCH  16  24
ENDBRANCH   1  17
BRANCH   1  36
ATOM     36  C   UNL     1       4.660   5.967   0.000  0.00  0.00    +0.000 C 
ATOM     37  C   UNL     1       4.077   6.551   0.000  0.00  0.00    +0.000 C 
ATOM     38  C   UNL     1       5.243   6.551   0.000  0.00  0.00    +0.000 C 
ENDBRANCH   1  36
BRANCH  10  39
ATOM     39  C   UNL     1       6.504   2.825   0.000  0.00  0.00    +0.000 C 
BRANCH  39  40
ATOM     40  C   UNL     1       6.002   2.171   0.000  0.00  0.00    +0.000 A 
ATOM     41  C   UNL     1       5.184   2.279   0.000  0.00  0.00    +0.000 A 
ATOM     42  C   UNL     1       4.682   1.624   0.000  0.00  0.00    +0.000 A 
ATOM     43  C   UNL     1       4.997   0.862   0.000  0.00  0.00    +0.000 A 
ATOM     44  C   UNL     1       5.815   0.754   0.000  0.00  0.00    +0.000 A 
ATOM     45  C   UNL     1       6.318   1.409   0.000  0.00  0.00    +0.000 A 
ENDBRANCH  39  40
ENDBRANCH  10  39
TORSDOF 5
REMARK  Name = 
REMARK  19 active torsions:
REMARK  status: ('A' for Active; 'I' for Inactive)
REMARK    1  A    between atoms: C_11  and  C_13
REMARK    2  A    between atoms: N_19  and  C_24
REMARK    3  A    between atoms: C_24  and  C_44
REMARK    4  A    between atoms: C_37  and  C_39
REMARK    5  A    between atoms: C_61  and  C_63
REMARK    6  A    between atoms: N_69  and  C_74
REMARK    7  A    between atoms: C_74  and  C_94
REMARK    8  A    between atoms: C_87  and  C_89
REMARK    9  A    between atoms: C_89  and  C_98
REMARK   10  A    between atoms: C_110  and  C_112
REMARK   11  A    between atoms: N_118  and  C_123
REMARK   12  A    between atoms: C_123  and  C_143
REMARK   13  A    between atoms: C_136  and  C_138
REMARK   14  A    between atoms: C_138  and  C_147
REMARK   15  A    between atoms: C_156  and  C_158
REMARK   16  A    between atoms: N_164  and  C_169
REMARK   17  A    between atoms: C_169  and  C_189
REMARK   18  A    between atoms: C_182  and  C_184
REMARK   19  A    between atoms: C_184  and  C_193
REMARK                            x       y       z     vdW  Elec       q    Type
REMARK                         _______ _______ _______ _____ _____    ______ ____
ROOT
ATOM      1  C   UNL     1      17.389   4.877   0.000  0.00  0.00    +0.000 C 
ATOM      2  C   UNL     1      17.537   4.066   0.000  0.00  0.00    +0.000 C 
ATOM      3  N   UNL     1      18.355   3.956   0.000  0.00  0.00    +0.000 N 
ATOM      4  C   UNL     1      18.712   4.700   0.000  0.00  0.00    +0.000 C 
ATOM      5  O   UNL     1      18.115   5.269   0.000  0.00  0.00    +0.000 OA
ATOM      6  O   UNL     1      16.968   3.469   0.000  0.00  0.00    +0.000 OA
ATOM      7  C   UNL     1      19.534   4.762   0.000  0.00  0.00    +0.000 C 
ATOM      8  N   UNL     1      20.000   4.081   0.000  0.00  0.00    +0.000 N 
ATOM      9  C   UNL     1      19.643   3.337   0.000  0.00  0.00    +0.000 C 
ATOM     10  C   UNL     1      18.820   3.275   0.000  0.00  0.00    +0.000 C 
ATOM     11  C   UNL     1      20.791   4.314   0.000  0.00  0.00    +0.000 C 
ATOM     12  C   UNL     1      20.815   5.138   0.000  0.00  0.00    +0.000 C 
ATOM     13  C   UNL     1      20.038   5.416   0.000  0.00  0.00    +0.000 C 
ATOM     14  O   UNL     1      19.124   5.414   0.000  0.00  0.00    +0.000 OA
ATOM     15  O   UNL     1      20.108   2.656   0.000  0.00  0.00    +0.000 OA
ENDROOT
BRANCH   1  17
ATOM     16  C   UNL     1      15.846   4.802   0.000  0.00  0.00    +0.000 C 
ATOM     17  N   UNL     1      16.640   5.237   0.000  0.00  0.00    +0.000 NA
ATOM     18  O   UNL     1      14.977   5.296   0.000  0.00  0.00    +0.000 OA
BRANCH  16  24
ATOM     19  C   UNL     1      15.171   2.690   0.000  0.00  0.00    +0.000 C 
ATOM     20  C   UNL     1      15.142   1.042   0.000  0.00  0.00    +0.000 A 
ATOM     21  C   UNL     1      15.876   2.271   0.000  0.00  0.00    +0.000 C 
ATOM     22  C   UNL     1      14.453   2.256   0.000  0.00  0.00    +0.000 A 
ATOM     23  N   UNL     1      16.595   2.735   0.000  0.00  0.00    +0.000 NA
ATOM     24  C   UNL     1      15.846   3.978   0.000  0.00  0.00    +0.000 C 
ATOM     25  C   UNL     1      14.453   1.447   0.000  0.00  0.00    +0.000 A 
ATOM     26  C   UNL     1      15.861   1.462   0.000  0.00  0.00    +0.000 C 
ATOM     27  C   UNL     1      15.171   3.499   0.000  0.00  0.00    +0.000 C 
ATOM     28  C   UNL     1      14.977   0.233   0.000  0.00  0.00    +0.000 A 
ATOM     29  N   UNL     1      13.943   0.233   0.000  0.00  0.00    +0.000 NA
ATOM     30  C   UNL     1      16.595   3.559   0.000  0.00  0.00    +0.000 C 
ATOM     31  C   UNL     1      13.733   1.042   0.000  0.00  0.00    +0.000 A 
ATOM     32  C   UNL     1      13.733   2.660   0.000  0.00  0.00    +0.000 A 
ATOM     33  C   UNL     1      17.329   2.360   0.000  0.00  0.00    +0.000 C 
ATOM     34  C   UNL     1      13.029   2.256   0.000  0.00  0.00    +0.000 A 
ATOM     35  C   UNL     1      13.029   1.432   0.000  0.00  0.00    +0.000 A 
ENDBRANCH  16  24
ENDBRANCH   1  17
BRANCH   1  36
ATOM     36  C   UNL     1      17.389   5.702   0.000  0.00  0.00    +0.000 C 
ATOM     37  C   UNL     1      16.805   6.285   0.000  0.00  0.00    +0.000 C 
ATOM     38  C   UNL     1      17.972   6.285   0.000  0.00  0.00    +0.000 C 
ENDBRANCH   1  36
BRANCH  10  39
ATOM     39  C   UNL     1      19.233   2.560   0.000  0.00  0.00    +0.000 C 
BRANCH  39  40
ATOM     40  C   UNL     1      18.730   1.906   0.000  0.00  0.00    +0.000 C 
ATOM     41  C   UNL     1      19.046   1.144   0.000  0.00  0.00    +0.000 C 
ATOM     42  C   UNL     1      17.934   1.692   0.000  0.00  0.00    +0.000 C 
ENDBRANCH  39  40
ENDBRANCH  10  39
TORSDOF 5
REMARK  Name = 
REMARK  19 active torsions:
REMARK  status: ('A' for Active; 'I' for Inactive)
REMARK    1  A    between atoms: C_11  and  C_13
REMARK    2  A    between atoms: N_19  and  C_24
REMARK    3  A    between atoms: C_24  and  C_44
REMARK    4  A    between atoms: C_37  and  C_39
REMARK    5  A    between atoms: C_61  and  C_63
REMARK    6  A    between atoms: N_69  and  C_74
REMARK    7  A    between atoms: C_74  and  C_94
REMARK    8  A    between atoms: C_87  and  C_89
REMARK    9  A    between atoms: C_89  and  C_98
REMARK   10  A    between atoms: C_110  and  C_112
REMARK   11  A    between atoms: N_118  and  C_123
REMARK   12  A    between atoms: C_123  and  C_143
REMARK   13  A    between atoms: C_136  and  C_138
REMARK   14  A    between atoms: C_138  and  C_147
REMARK   15  A    between atoms: C_156  and  C_158
REMARK   16  A    between atoms: N_164  and  C_169
REMARK   17  A    between atoms: C_169  and  C_189
REMARK   18  A    between atoms: C_182  and  C_184
REMARK   19  A    between atoms: C_184  and  C_193
REMARK                            x       y       z     vdW  Elec       q    Type
REMARK                         _______ _______ _______ _____ _____    ______ ____
ROOT
ATOM      1  C   UNL     1       8.991  -4.581   0.000  0.00  0.00    +0.000 C 
ATOM      2  C   UNL     1       9.140  -5.393   0.000  0.00  0.00    +0.000 C 
ATOM      3  N   UNL     1       9.957  -5.502   0.000  0.00  0.00    +0.000 N 
ATOM      4  C   UNL     1      10.314  -4.758   0.000  0.00  0.00    +0.000 C 
ATOM      5  O   UNL     1       9.717  -4.189   0.000  0.00  0.00    +0.000 OA
ATOM      6  O   UNL     1       8.570  -5.990   0.000  0.00  0.00    +0.000 OA
ATOM      7  C   UNL     1      11.137  -4.696   0.000  0.00  0.00    +0.000 C 
ATOM      8  N   UNL     1      11.602  -5.377   0.000  0.00  0.00    +0.000 N 
ATOM      9  C   UNL     1      11.245  -6.120   0.000  0.00  0.00    +0.000 C 
ATOM     10  C   UNL     1      10.423  -6.183   0.000  0.00  0.00    +0.000 C 
ATOM     11  C   UNL     1      12.394  -5.144   0.000  0.00  0.00    +0.000 C 
ATOM     12  C   UNL     1      12.418  -4.320   0.000  0.00  0.00    +0.000 C 
ATOM     13  C   UNL     1      11.641  -4.043   0.000  0.00  0.00    +0.000 C 
ATOM     14  O   UNL     1      10.727  -4.044   0.000  0.00  0.00    +0.000 OA
ATOM     15  O   UNL     1      11.711  -6.802   0.000  0.00  0.00    +0.000 OA
ENDROOT
BRANCH   1  17
ATOM     16  C   UNL     1       7.448  -4.656   0.000  0.00  0.00    +0.000 C 
ATOM     17  N   UNL     1       8.242  -4.221   0.000  0.00  0.00    +0.000 NA
ATOM     18  O   UNL     1       6.580  -4.162   0.000  0.00  0.00    +0.000 OA
BRANCH  16  24
ATOM     19  C   UNL     1       6.774  -6.768   0.000  0.00  0.00    +0.000 C 
ATOM     20  C   UNL     1       6.744  -8.416   0.000  0.00  0.00    +0.000 A 
ATOM     21  C   UNL     1       7.478  -7.188   0.000  0.00  0.00    +0.000 C 
ATOM     22  C   UNL     1       6.055  -7.202   0.000  0.00  0.00    +0.000 A 
ATOM     23  N   UNL     1       8.197  -6.723   0.000  0.00  0.00    +0.000 NA
ATOM     24  C   UNL     1       7.448  -5.480   0.000  0.00  0.00    +0.000 C 
ATOM     25  C   UNL     1       6.055  -8.011   0.000  0.00  0.00    +0.000 A 
ATOM     26  C   UNL     1       7.463  -7.997   0.000  0.00  0.00    +0.000 C 
ATOM     27  C   UNL     1       6.774  -5.959   0.000  0.00  0.00    +0.000 C 
ATOM     28  C   UNL     1       6.580  -9.225   0.000  0.00  0.00    +0.000 A 
ATOM     29  N   UNL     1       5.546  -9.225   0.000  0.00  0.00    +0.000 NA
ATOM     30  C   UNL     1       8.197  -5.899   0.000  0.00  0.00    +0.000 C 
ATOM     31  C   UNL     1       5.336  -8.416   0.000  0.00  0.00    +0.000 A 
ATOM     32  C   UNL     1       5.336  -6.798   0.000  0.00  0.00    +0.000 A 
ATOM     33  C   UNL     1       8.931  -7.098   0.000  0.00  0.00    +0.000 C 
ATOM     34  C   UNL     1       4.632  -7.202   0.000  0.00  0.00    +0.000 A 
ATOM     35  C   UNL     1       4.632  -8.026   0.000  0.00  0.00    +0.000 A 
ENDBRANCH  16  24
ENDBRANCH   1  17
BRANCH   1  36
ATOM     36  C   UNL     1       8.991  -3.756   0.000  0.00  0.00    +0.000 C 
ATOM     37  C   UNL     1       8.408  -3.173   0.000  0.00  0.00    +0.000 C 
ATOM     38  C   UNL     1       9.575  -3.173   0.000  0.00  0.00    +0.000 C 
ENDBRANCH   1  36
BRANCH  10  39
ATOM     39  C   UNL     1      10.835  -6.898   0.000  0.00  0.00    +0.000 C 
ATOM     40  C   UNL     1      11.632  -7.111   0.000  0.00  0.00    +0.000 C 
BRANCH  39  41
ATOM     41  C   UNL     1      10.333  -7.552   0.000  0.00  0.00    +0.000 C 
ATOM     42  C   UNL     1      10.649  -8.314   0.000  0.00  0.00    +0.000 C 
ENDBRANCH  39  41
ENDBRANCH  10  39
TORSDOF 5
REMARK  Name = 
REMARK  19 active torsions:
REMARK  status: ('A' for Active; 'I' for Inactive)
REMARK    1  A    between atoms: C_11  and  C_13
REMARK    2  A    between atoms: N_19  and  C_24
REMARK    3  A    between atoms: C_24  and  C_44
REMARK    4  A    between atoms: C_37  and  C_39
REMARK    5  A    between atoms: C_61  and  C_63
REMARK    6  A    between atoms: N_69  and  C_74
REMARK    7  A    between atoms: C_74  and  C_94
REMARK    8  A    between atoms: C_87  and  C_89
REMARK    9  A    between atoms: C_89  and  C_98
REMARK   10  A    between atoms: C_110  and  C_112
REMARK   11  A    between atoms: N_118  and  C_123
REMARK   12  A    between atoms: C_123  and  C_143
REMARK   13  A    between atoms: C_136  and  C_138
REMARK   14  A    between atoms: C_138  and  C_147
REMARK   15  A    between atoms: C_156  and  C_158
REMARK   16  A    between atoms: N_164  and  C_169
REMARK   17  A    between atoms: C_169  and  C_189
REMARK   18  A    between atoms: C_182  and  C_184
REMARK   19  A    between atoms: C_184  and  C_193
REMARK                            x       y       z     vdW  Elec       q    Type
REMARK                         _______ _______ _______ _____ _____    ______ ____
ROOT
ATOM      1  S   UNL     1      -5.448  -3.108   0.000  0.00  0.00    +0.000 S 
ATOM      2  O   UNL     1      -5.029  -2.359   0.000  0.00  0.00    +0.000 OA
ATOM      3  O   UNL     1      -5.882  -2.359   0.000  0.00  0.00    +0.000 OA
ATOM      4  O   UNL     1      -4.714  -3.527   0.000  0.00  0.00    +0.000 OA
ATOM      5  C   UNL     1      -6.182  -3.527   0.000  0.00  0.00    +0.000 C 
ENDROOT
TORSDOF 0
REMARK  Name = 
REMARK  19 active torsions:
REMARK  status: ('A' for Active; 'I' for Inactive)
REMARK    1  A    between atoms: C_11  and  C_13
REMARK    2  A    between atoms: N_19  and  C_24
REMARK    3  A    between atoms: C_24  and  C_44
REMARK    4  A    between atoms: C_37  and  C_39
REMARK    5  A    between atoms: C_61  and  C_63
REMARK    6  A    between atoms: N_69  and  C_74
REMARK    7  A    between atoms: C_74  and  C_94
REMARK    8  A    between atoms: C_87  and  C_89
REMARK    9  A    between atoms: C_89  and  C_98
REMARK   10  A    between atoms: C_110  and  C_112
REMARK   11  A    between atoms: N_118  and  C_123
REMARK   12  A    between atoms: C_123  and  C_143
REMARK   13  A    between atoms: C_136  and  C_138
REMARK   14  A    between atoms: C_138  and  C_147
REMARK   15  A    between atoms: C_156  and  C_158
REMARK   16  A    between atoms: N_164  and  C_169
REMARK   17  A    between atoms: C_169  and  C_189
REMARK   18  A    between atoms: C_182  and  C_184
REMARK   19  A    between atoms: C_184  and  C_193
REMARK                            x       y       z     vdW  Elec       q    Type
REMARK                         _______ _______ _______ _____ _____    ______ ____
ROOT
ATOM      1  S   UNL     1      -6.096  -5.877   0.000  0.00  0.00    +0.000 S 
ATOM      2  O   UNL     1      -5.677  -5.128   0.000  0.00  0.00    +0.000 OA
ATOM      3  O   UNL     1      -6.530  -5.128   0.000  0.00  0.00    +0.000 OA
ATOM      4  O   UNL     1      -5.362  -6.297   0.000  0.00  0.00    +0.000 OA
ATOM      5  C   UNL     1      -6.830  -6.297   0.000  0.00  0.00    +0.000 C 
ENDROOT
TORSDOF 0
