REMARK  Name = 
REMARK  6 active torsions:
REMARK  status: ('A' for Active; 'I' for Inactive)
REMARK    1  A    between atoms: C_7  and  O_22
REMARK    2  A    between atoms: C_8  and  O_23
REMARK    3  A    between atoms: C_10  and  O_14
REMARK    4  A    between atoms: C_13  and  O_25
REMARK    5  A    between atoms: O_14  and  C_24
REMARK    6  A    between atoms: C_21  and  C_24
REMARK                            x       y       z     vdW  Elec       q    Type
REMARK                         _______ _______ _______ _____ _____    ______ ____
ROOT
ATOM      1  C   UNL     1       3.237  -4.150   0.000  0.00  0.00    +0.000 A 
ATOM      2  N   UNL     1       3.237  -4.854   0.000  0.00  0.00    +0.000 NA
ATOM      3  C   UNL     1       2.000  -4.150   0.000  0.00  0.00    +0.000 A 
ATOM      4  C   UNL     1       2.000  -4.854   0.000  0.00  0.00    +0.000 A 
ATOM      5  N   UNL     1       2.617  -3.792   0.000  0.00  0.00    +0.000 NA
ATOM      6  C   UNL     1       2.617  -5.200   0.000  0.00  0.00    +0.000 A 
ATOM      7  C   UNL     1       1.375  -3.792   0.000  0.00  0.00    +0.000 A 
ATOM      8  C   UNL     1       0.754  -4.150   0.000  0.00  0.00    +0.000 A 
ATOM      9  N   UNL     1       3.854  -3.779   0.000  0.00  0.00    +0.000 N 
ATOM     10  C   UNL     1       5.679  -2.692   0.000  0.00  0.00    +0.000 C 
ATOM     11  N   UNL     1       5.067  -3.054   0.000  0.00  0.00    +0.000 N 
ATOM     12  C   UNL     1       1.375  -5.200   0.000  0.00  0.00    +0.000 A 
ATOM     13  C   UNL     1       0.754  -4.854   0.000  0.00  0.00    +0.000 A 
ATOM     14  C   UNL     1       4.479  -4.125   0.000  0.00  0.00    +0.000 C 
ATOM     15  C   UNL     1       3.842  -3.067   0.000  0.00  0.00    +0.000 C 
ATOM     16  C   UNL     1       5.079  -3.775   0.000  0.00  0.00    +0.000 C 
ATOM     17  C   UNL     1       4.450  -2.712   0.000  0.00  0.00    +0.000 C 
ATOM     18  O   UNL     1       5.688  -2.000   0.000  0.00  0.00    +0.000 OA
ATOM     19  N   UNL     1       2.617  -5.904   0.000  0.00  0.00    +0.000 NA
ENDROOT
BRANCH   7  20
ATOM     20  O   UNL     1       1.375  -3.079   0.000  0.00  0.00    +0.000 OA
ATOM     21  C   UNL     1       0.767  -2.712   0.000  0.00  0.00    +0.000 C 
ENDBRANCH   7  20
BRANCH   8  22
ATOM     22  O   UNL     1       0.125  -3.763   0.000  0.00  0.00    +0.000 OA
ATOM     23  C   UNL     1      -0.471  -4.129   0.000  0.00  0.00    +0.000 C 
ENDBRANCH   8  22
BRANCH  13  24
ATOM     24  O   UNL     1       0.138  -5.200   0.000  0.00  0.00    +0.000 OA
ATOM     25  C   UNL     1      -0.471  -4.854   0.000  0.00  0.00    +0.000 C 
ENDBRANCH  13  24
BRANCH  10  26
ATOM     26  O   UNL     1       6.300  -3.025   0.000  0.00  0.00    +0.000 OA
BRANCH  26  27
ATOM     27  C   UNL     1       6.904  -2.667   0.000  0.00  0.00    +0.000 C 
BRANCH  27  28
ATOM     28  C   UNL     1       7.542  -3.013   0.000  0.00  0.00    +0.000 C 
ATOM     29  O   UNL     1       7.542  -3.704   0.000  0.00  0.00    +0.000 OA
ATOM     30  C   UNL     1       8.317  -3.179   0.000  0.00  0.00    +0.000 C 
ATOM     31  C   UNL     1       8.154  -2.654   0.000  0.00  0.00    +0.000 C 
ENDBRANCH  27  28
ENDBRANCH  26  27
ENDBRANCH  10  26
TORSDOF 6
