REMARK  Name = 
REMARK  9 active torsions:
REMARK  status: ('A' for Active; 'I' for Inactive)
REMARK    1  A    between atoms: C_6  and  C_7
REMARK    2  A    between atoms: C_8  and  O_34
REMARK    3  A    between atoms: C_9  and  O_32
REMARK    4  A    between atoms: C_10  and  O_31
REMARK    5  A    between atoms: C_11  and  O_31
REMARK    6  A    between atoms: C_12  and  O_32
REMARK    7  A    between atoms: C_13  and  O_41
REMARK    8  A    between atoms: O_34  and  C_39
REMARK    9  A    between atoms: O_41  and  C_45
REMARK                            x       y       z     vdW  Elec       q    Type
REMARK                         _______ _______ _______ _____ _____    ______ ____
ROOT
ATOM      1  C   UNL     1       4.732  -4.169   0.000  0.00  0.00    +0.000 C 
ATOM      2  C   UNL     1       6.382  -4.169   0.000  0.00  0.00    +0.000 C 
ATOM      3  O   UNL     1       5.974  -3.455   0.000  0.00  0.00    +0.000 OA
ATOM      4  C   UNL     1       5.974  -4.882   0.000  0.00  0.00    +0.000 C 
ATOM      5  C   UNL     1       5.144  -4.882   0.000  0.00  0.00    +0.000 C 
ATOM      6  C   UNL     1       5.144  -3.455   0.000  0.00  0.00    +0.000 C 
ATOM      7  O   UNL     1       4.737  -5.596   0.000  0.00  0.00    +0.000 OA
ATOM      8  C   UNL     1       4.737  -2.737   0.000  0.00  0.00    +0.000 C 
ENDROOT
BRANCH   1   9
ATOM      9  O   UNL     1       3.907  -4.169   0.000  0.00  0.00    +0.000 OA
BRANCH   9  11
ATOM     10  C   UNL     1       1.548  -4.591   0.000  0.00  0.00    +0.000 C 
ATOM     11  C   UNL     1       3.198  -4.591   0.000  0.00  0.00    +0.000 C 
ATOM     12  O   UNL     1       2.786  -3.878   0.000  0.00  0.00    +0.000 OA
ATOM     13  C   UNL     1       2.786  -5.300   0.000  0.00  0.00    +0.000 C 
ATOM     14  C   UNL     1       1.961  -5.300   0.000  0.00  0.00    +0.000 C 
ATOM     15  C   UNL     1       1.961  -3.878   0.000  0.00  0.00    +0.000 C 
ATOM     16  O   UNL     1       1.548  -6.018   0.000  0.00  0.00    +0.000 OA
ATOM     17  C   UNL     1       1.548  -3.159   0.000  0.00  0.00    +0.000 C 
BRANCH  10  18
ATOM     18  O   UNL     1       0.728  -4.591   0.000  0.00  0.00    +0.000 OA
BRANCH  18  20
ATOM     19  C   UNL     1      -1.218  -5.722   0.000  0.00  0.00    +0.000 C 
ATOM     20  C   UNL     1       0.015  -5.008   0.000  0.00  0.00    +0.000 C 
ATOM     21  O   UNL     1      -0.393  -4.295   0.000  0.00  0.00    +0.000 OA
ATOM     22  C   UNL     1      -0.393  -5.722   0.000  0.00  0.00    +0.000 C 
ATOM     23  C   UNL     1      -1.636  -5.008   0.000  0.00  0.00    +0.000 C 
ATOM     24  C   UNL     1      -1.218  -4.295   0.000  0.00  0.00    +0.000 C 
ATOM     25  O   UNL     1      -2.461  -5.008   0.000  0.00  0.00    +0.000 OA
ATOM     26  C   UNL     1      -1.631  -3.577   0.000  0.00  0.00    +0.000 C 
BRANCH  19  27
ATOM     27  O   UNL     1      -1.631  -6.435   0.000  0.00  0.00    +0.000 OA
BRANCH  27  28
ATOM     28  C   UNL     1      -2.456  -6.435   0.000  0.00  0.00    +0.000 C 
ATOM     29  O   UNL     1      -2.868  -5.722   0.000  0.00  0.00    +0.000 OA
ATOM     30  C   UNL     1      -2.868  -7.154   0.000  0.00  0.00    +0.000 C 
ENDBRANCH  27  28
ENDBRANCH  19  27
ENDBRANCH  18  20
ENDBRANCH  10  18
ENDBRANCH   9  11
ENDBRANCH   1   9
BRANCH   2  31
ATOM     31  O   UNL     1       7.095  -3.747   0.000  0.00  0.00    +0.000 OA
BRANCH  31  47
ATOM     32  C   UNL     1      11.075  -1.810   0.000  0.00  0.00    +0.000 C 
ATOM     33  C   UNL     1      11.085  -0.990   0.000  0.00  0.00    +0.000 C 
ATOM     34  C   UNL     1       8.935  -2.213   0.000  0.00  0.00    +0.000 C 
ATOM     35  C   UNL     1      10.361  -2.218   0.000  0.00  0.00    +0.000 C 
ATOM     36  C   UNL     1       9.648  -1.800   0.000  0.00  0.00    +0.000 C 
ATOM     37  C   UNL     1      11.871  -0.743   0.000  0.00  0.00    +0.000 C 
ATOM     38  C   UNL     1       8.935  -3.033   0.000  0.00  0.00    +0.000 C 
ATOM     39  C   UNL     1      11.856  -2.077   0.000  0.00  0.00    +0.000 C 
ATOM     40  C   UNL     1      10.371  -0.568   0.000  0.00  0.00    +0.000 C 
ATOM     41  C   UNL     1       9.653  -0.976   0.000  0.00  0.00    +0.000 C 
ATOM     42  C   UNL     1      12.347  -1.412   0.000  0.00  0.00    +0.000 C 
ATOM     43  C   UNL     1       8.221  -1.796   0.000  0.00  0.00    +0.000 C 
ATOM     44  C   UNL     1      10.357  -3.043   0.000  0.00  0.00    +0.000 C 
ATOM     45  C   UNL     1       8.221  -3.451   0.000  0.00  0.00    +0.000 C 
ATOM     46  C   UNL     1       9.643  -3.451   0.000  0.00  0.00    +0.000 C 
ATOM     47  C   UNL     1       7.513  -3.033   0.000  0.00  0.00    +0.000 C 
ATOM     48  O   UNL     1      11.070  -2.635   0.000  0.00  0.00    +0.000 OA
ATOM     49  C   UNL     1       7.513  -2.213   0.000  0.00  0.00    +0.000 C 
ATOM     50  C   UNL     1      11.080  -0.165   0.000  0.00  0.00    +0.000 C 
ATOM     51  C   UNL     1       8.930  -1.388   0.000  0.00  0.00    +0.000 C 
BRANCH  37  52
ATOM     52  C   UNL     1      12.133   0.039   0.000  0.00  0.00    +0.000 C 
ATOM     53  C   UNL     1      12.919   0.286   0.000  0.00  0.00    +0.000 C 
ATOM     54  C   UNL     1      12.924   1.111   0.000  0.00  0.00    +0.000 C 
ATOM     55  O   UNL     1      12.143   1.373   0.000  0.00  0.00    +0.000 OA
ATOM     56  C   UNL     1      11.652   0.713   0.000  0.00  0.00    +0.000 C 
ATOM     57  O   UNL     1      13.599   1.592   0.000  0.00  0.00    +0.000 OA
ENDBRANCH  37  52
ENDBRANCH  31  47
ENDBRANCH   2  31
TORSDOF 9
