MODEL 1
REMARK VINA RESULT:      -9.5      0.000      0.000
REMARK  Name = 
REMARK  18 active torsions:
REMARK  status: ('A' for Active; 'I' for Inactive)
REMARK    1  A    between atoms: C_1  and  O_7
REMARK    2  A    between atoms: C_2  and  O_9
REMARK    3  A    between atoms: C_3  and  O_8
REMARK    4  A    between atoms: C_4  and  O_10
REMARK    5  A    between atoms: C_5  and  O_11
REMARK    6  A    between atoms: C_6  and  O_12
REMARK    7  A    between atoms: O_7  and  C_13
REMARK    8  A    between atoms: O_8  and  C_14
REMARK    9  A    between atoms: O_9  and  C_15
REMARK   10  A    between atoms: O_10  and  C_16
REMARK   11  A    between atoms: O_11  and  C_17
REMARK   12  A    between atoms: O_12  and  C_18
REMARK   13  A    between atoms: C_13  and  C_19
REMARK   14  A    between atoms: C_14  and  C_20
REMARK   15  A    between atoms: C_15  and  C_21
REMARK   16  A    between atoms: C_16  and  C_22
REMARK   17  A    between atoms: C_17  and  C_23
REMARK   18  A    between atoms: C_18  and  C_24
REMARK                            x       y       z     vdW  Elec       q    Type
REMARK                         _______ _______ _______ _____ _____    ______ ____
ROOT
ATOM      1  C   UNL     1     140.852 133.227 106.331  0.00  0.00    +0.000 C 
ATOM      2  C   UNL     1     141.396 132.908 106.547  0.00  0.00    +0.000 C 
ATOM      3  C   UNL     1     140.573 133.672 106.693  0.00  0.00    +0.000 C 
ATOM      4  C   UNL     1     141.637 133.048 107.117  0.00  0.00    +0.000 C 
ATOM      5  C   UNL     1     140.828 133.814 107.286  0.00  0.00    +0.000 C 
ATOM      6  C   UNL     1     141.349 133.508 107.491  0.00  0.00    +0.000 C 
ENDROOT
BRANCH   6   7
ATOM      7  O   UNL     1     141.587 133.663 108.084  0.00  0.00    +0.000 OA
BRANCH   7   8
ATOM      8  C   UNL     1     141.386 133.336 108.607  0.00  0.00    +0.000 C 
ATOM      9  O   UNL     1     140.942 132.866 108.543  0.00  0.00    +0.000 OA
BRANCH   8  10
ATOM     10  C   UNL     1     141.639 133.493 109.187  0.00  0.00    +0.000 A 
ATOM     11  N   UNL     1     142.339 134.116 109.834  0.00  0.00    +0.000 NA
ATOM     12  C   UNL     1     142.094 133.970 109.248  0.00  0.00    +0.000 A 
ATOM     13  C   UNL     1     141.437 133.169 109.719  0.00  0.00    +0.000 A 
ATOM     14  C   UNL     1     142.137 133.791 110.378  0.00  0.00    +0.000 A 
ATOM     15  C   UNL     1     141.682 133.313 110.318  0.00  0.00    +0.000 A 
ENDBRANCH   8  10
ENDBRANCH   7   8
ENDBRANCH   6   7
BRANCH   5  16
ATOM     16  O   UNL     1     140.542 134.270 107.657  0.00  0.00    +0.000 OA
BRANCH  16  17
ATOM     17  C   UNL     1     140.718 134.880 107.609  0.00  0.00    +0.000 C 
ATOM     18  O   UNL     1     141.193 135.063 107.186  0.00  0.00    +0.000 OA
BRANCH  17  19
ATOM     19  C   UNL     1     140.421 135.337 107.986  0.00  0.00    +0.000 A 
ATOM     20  N   UNL     1     139.659 135.610 108.781  0.00  0.00    +0.000 NA
ATOM     21  C   UNL     1     139.948 135.160 108.411  0.00  0.00    +0.000 A 
ATOM     22  C   UNL     1     140.598 135.956 107.935  0.00  0.00    +0.000 A 
ATOM     23  C   UNL     1     139.833 136.241 108.734  0.00  0.00    +0.000 A 
ATOM     24  C   UNL     1     140.306 136.419 108.309  0.00  0.00    +0.000 A 
ENDBRANCH  17  19
ENDBRANCH  16  17
ENDBRANCH   5  16
BRANCH   4  25
ATOM     25  O   UNL     1     142.174 132.743 107.348  0.00  0.00    +0.000 OA
BRANCH  25  26
ATOM     26  C   UNL     1     142.754 132.992 107.210  0.00  0.00    +0.000 C 
ATOM     27  O   UNL     1     142.811 133.539 106.853  0.00  0.00    +0.000 OA
BRANCH  26  28
ATOM     28  C   UNL     1     143.274 132.684 107.436  0.00  0.00    +0.000 A 
ATOM     29  N   UNL     1     144.399 132.627 107.538  0.00  0.00    +0.000 NA
ATOM     30  C   UNL     1     143.863 132.932 107.314  0.00  0.00    +0.000 A 
ATOM     31  C   UNL     1     143.229 132.135 107.779  0.00  0.00    +0.000 A 
ATOM     32  C   UNL     1     144.350 132.076 107.884  0.00  0.00    +0.000 A 
ATOM     33  C   UNL     1     143.751 131.831 108.002  0.00  0.00    +0.000 A 
ENDBRANCH  26  28
ENDBRANCH  25  26
ENDBRANCH   4  25
BRANCH   2  34
ATOM     34  O   UNL     1     141.678 132.458 106.180  0.00  0.00    +0.000 OA
BRANCH  34  35
ATOM     35  C   UNL     1     141.497 131.851 106.227  0.00  0.00    +0.000 C 
ATOM     36  O   UNL     1     141.020 131.670 106.640  0.00  0.00    +0.000 OA
BRANCH  35  37
ATOM     37  C   UNL     1     141.797 131.400 105.853  0.00  0.00    +0.000 A 
ATOM     38  N   UNL     1     142.551 131.134 105.057  0.00  0.00    +0.000 NA
ATOM     39  C   UNL     1     142.245 131.577 105.436  0.00  0.00    +0.000 A 
ATOM     40  C   UNL     1     141.640 130.775 105.906  0.00  0.00    +0.000 A 
ATOM     41  C   UNL     1     142.402 130.504 105.101  0.00  0.00    +0.000 A 
ATOM     42  C   UNL     1     141.941 130.321 105.530  0.00  0.00    +0.000 A 
ENDBRANCH  35  37
ENDBRANCH  34  35
ENDBRANCH   2  34
BRANCH   3  43
ATOM     43  O   UNL     1     140.044 133.968 106.458  0.00  0.00    +0.000 OA
BRANCH  43  44
ATOM     44  C   UNL     1     139.458 133.733 106.596  0.00  0.00    +0.000 C 
ATOM     45  O   UNL     1     139.396 133.176 106.942  0.00  0.00    +0.000 OA
BRANCH  44  46
ATOM     46  C   UNL     1     138.939 134.054 106.388  0.00  0.00    +0.000 A 
ATOM     47  N   UNL     1     138.456 134.916 105.840  0.00  0.00    +0.000 NA
ATOM     48  C   UNL     1     138.983 134.598 106.046  0.00  0.00    +0.000 A 
ATOM     49  C   UNL     1     138.351 133.824 106.527  0.00  0.00    +0.000 A 
ATOM     50  C   UNL     1     137.865 134.684 105.980  0.00  0.00    +0.000 A 
ATOM     51  C   UNL     1     137.812 134.137 106.325  0.00  0.00    +0.000 A 
ENDBRANCH  44  46
ENDBRANCH  43  44
ENDBRANCH   3  43
BRANCH   1  52
ATOM     52  O   UNL     1     140.595 133.088 105.741  0.00  0.00    +0.000 OA
BRANCH  52  53
ATOM     53  C   UNL     1     140.799 133.409 105.208  0.00  0.00    +0.000 C 
ATOM     54  O   UNL     1     141.244 133.880 105.256  0.00  0.00    +0.000 OA
BRANCH  53  55
ATOM     55  C   UNL     1     140.547 133.245 104.640  0.00  0.00    +0.000 A 
ATOM     56  N   UNL     1     140.503 133.400 103.501  0.00  0.00    +0.000 NA
ATOM     57  C   UNL     1     140.747 133.551 104.093  0.00  0.00    +0.000 A 
ATOM     58  C   UNL     1     140.086 132.772 104.581  0.00  0.00    +0.000 A 
ATOM     59  C   UNL     1     140.042 132.927 103.442  0.00  0.00    +0.000 A 
ATOM     60  C   UNL     1     139.835 132.614 103.988  0.00  0.00    +0.000 A 
ENDBRANCH  53  55
ENDBRANCH  52  53
ENDBRANCH   1  52
TORSDOF 18
ENDMDL
MODEL 2
REMARK VINA RESULT:      -9.4      0.363      2.785
REMARK  Name = 
REMARK  18 active torsions:
REMARK  status: ('A' for Active; 'I' for Inactive)
REMARK    1  A    between atoms: C_1  and  O_7
REMARK    2  A    between atoms: C_2  and  O_9
REMARK    3  A    between atoms: C_3  and  O_8
REMARK    4  A    between atoms: C_4  and  O_10
REMARK    5  A    between atoms: C_5  and  O_11
REMARK    6  A    between atoms: C_6  and  O_12
REMARK    7  A    between atoms: O_7  and  C_13
REMARK    8  A    between atoms: O_8  and  C_14
REMARK    9  A    between atoms: O_9  and  C_15
REMARK   10  A    between atoms: O_10  and  C_16
REMARK   11  A    between atoms: O_11  and  C_17
REMARK   12  A    between atoms: O_12  and  C_18
REMARK   13  A    between atoms: C_13  and  C_19
REMARK   14  A    between atoms: C_14  and  C_20
REMARK   15  A    between atoms: C_15  and  C_21
REMARK   16  A    between atoms: C_16  and  C_22
REMARK   17  A    between atoms: C_17  and  C_23
REMARK   18  A    between atoms: C_18  and  C_24
REMARK                            x       y       z     vdW  Elec       q    Type
REMARK                         _______ _______ _______ _____ _____    ______ ____
ROOT
ATOM      1  C   UNL     1     141.321 132.857 106.541  0.00  0.00    +0.000 C 
ATOM      2  C   UNL     1     141.570 132.990 107.145  0.00  0.00    +0.000 C 
ATOM      3  C   UNL     1     140.808 133.170 106.327  0.00  0.00    +0.000 C 
ATOM      4  C   UNL     1     141.296 133.432 107.508  0.00  0.00    +0.000 C 
ATOM      5  C   UNL     1     140.526 133.630 106.709  0.00  0.00    +0.000 C 
ATOM      6  C   UNL     1     140.766 133.757 107.287  0.00  0.00    +0.000 C 
ENDROOT
BRANCH   6   7
ATOM      7  O   UNL     1     140.471 134.217 107.651  0.00  0.00    +0.000 OA
BRANCH   7   8
ATOM      8  C   UNL     1     140.671 134.833 107.613  0.00  0.00    +0.000 C 
ATOM      9  O   UNL     1     141.153 134.992 107.207  0.00  0.00    +0.000 OA
BRANCH   8  10
ATOM     10  C   UNL     1     140.378 135.278 107.989  0.00  0.00    +0.000 A 
ATOM     11  N   UNL     1     139.609 135.566 108.779  0.00  0.00    +0.000 NA
ATOM     12  C   UNL     1     139.894 135.111 108.409  0.00  0.00    +0.000 A 
ATOM     13  C   UNL     1     140.569 135.903 107.948  0.00  0.00    +0.000 A 
ATOM     14  C   UNL     1     139.799 136.203 108.741  0.00  0.00    +0.000 A 
ATOM     15  C   UNL     1     140.283 136.371 108.322  0.00  0.00    +0.000 A 
ENDBRANCH   8  10
ENDBRANCH   7   8
ENDBRANCH   6   7
BRANCH   5  16
ATOM     16  O   UNL     1     140.000 133.951 106.489  0.00  0.00    +0.000 OA
BRANCH  16  17
ATOM     17  C   UNL     1     139.416 133.722 106.596  0.00  0.00    +0.000 C 
ATOM     18  O   UNL     1     139.330 133.155 106.926  0.00  0.00    +0.000 OA
BRANCH  17  19
ATOM     19  C   UNL     1     138.888 134.056 106.375  0.00  0.00    +0.000 A 
ATOM     20  N   UNL     1     138.449 134.948 105.829  0.00  0.00    +0.000 NA
ATOM     21  C   UNL     1     138.968 134.623 106.045  0.00  0.00    +0.000 A 
ATOM     22  C   UNL     1     138.296 133.824 106.485  0.00  0.00    +0.000 A 
ATOM     23  C   UNL     1     137.843 134.719 105.937  0.00  0.00    +0.000 A 
ATOM     24  C   UNL     1     137.763 134.153 106.267  0.00  0.00    +0.000 A 
ENDBRANCH  17  19
ENDBRANCH  16  17
ENDBRANCH   5  16
BRANCH   4  25
ATOM     25  O   UNL     1     141.528 133.579 108.108  0.00  0.00    +0.000 OA
BRANCH  25  26
ATOM     26  C   UNL     1     141.307 133.245 108.615  0.00  0.00    +0.000 C 
ATOM     27  O   UNL     1     140.854 132.778 108.539  0.00  0.00    +0.000 OA
BRANCH  26  28
ATOM     28  C   UNL     1     141.547 133.389 109.196  0.00  0.00    +0.000 A 
ATOM     29  N   UNL     1     141.565 133.200 110.311  0.00  0.00    +0.000 NA
ATOM     30  C   UNL     1     141.329 133.063 109.714  0.00  0.00    +0.000 A 
ATOM     31  C   UNL     1     141.998 133.848 109.280  0.00  0.00    +0.000 A 
ATOM     32  C   UNL     1     142.019 133.662 110.392  0.00  0.00    +0.000 A 
ATOM     33  C   UNL     1     142.235 133.988 109.862  0.00  0.00    +0.000 A 
ENDBRANCH  26  28
ENDBRANCH  25  26
ENDBRANCH   4  25
BRANCH   2  34
ATOM     34  O   UNL     1     142.089 132.673 107.362  0.00  0.00    +0.000 OA
BRANCH  34  35
ATOM     35  C   UNL     1     142.671 132.900 107.247  0.00  0.00    +0.000 C 
ATOM     36  O   UNL     1     142.758 133.456 106.908  0.00  0.00    +0.000 OA
BRANCH  35  37
ATOM     37  C   UNL     1     143.192 132.569 107.475  0.00  0.00    +0.000 A 
ATOM     38  N   UNL     1     143.624 131.688 108.033  0.00  0.00    +0.000 NA
ATOM     39  C   UNL     1     143.109 132.028 107.800  0.00  0.00    +0.000 A 
ATOM     40  C   UNL     1     143.790 132.790 107.370  0.00  0.00    +0.000 A 
ATOM     41  C   UNL     1     144.229 131.900 107.934  0.00  0.00    +0.000 A 
ATOM     42  C   UNL     1     144.315 132.457 107.599  0.00  0.00    +0.000 A 
ENDBRANCH  35  37
ENDBRANCH  34  35
ENDBRANCH   2  34
BRANCH   3  43
ATOM     43  O   UNL     1     140.585 133.020 105.735  0.00  0.00    +0.000 OA
BRANCH  43  44
ATOM     44  C   UNL     1     140.788 133.357 105.222  0.00  0.00    +0.000 C 
ATOM     45  O   UNL     1     141.236 133.834 105.294  0.00  0.00    +0.000 OA
BRANCH  44  46
ATOM     46  C   UNL     1     140.543 133.215 104.643  0.00  0.00    +0.000 A 
ATOM     47  N   UNL     1     139.846 132.630 103.974  0.00  0.00    +0.000 NA
ATOM     48  C   UNL     1     140.088 132.767 104.560  0.00  0.00    +0.000 A 
ATOM     49  C   UNL     1     140.760 133.533 104.123  0.00  0.00    +0.000 A 
ATOM     50  C   UNL     1     140.065 132.950 103.451  0.00  0.00    +0.000 A 
ATOM     51  C   UNL     1     140.524 133.403 103.527  0.00  0.00    +0.000 A 
ENDBRANCH  44  46
ENDBRANCH  43  44
ENDBRANCH   3  43
BRANCH   1  52
ATOM     52  O   UNL     1     141.599 132.400 106.159  0.00  0.00    +0.000 OA
BRANCH  52  53
ATOM     53  C   UNL     1     141.409 131.775 106.198  0.00  0.00    +0.000 C 
ATOM     54  O   UNL     1     140.928 131.600 106.600  0.00  0.00    +0.000 OA
BRANCH  53  55
ATOM     55  C   UNL     1     141.710 131.342 105.831  0.00  0.00    +0.000 A 
ATOM     56  N   UNL     1     141.828 130.248 105.496  0.00  0.00    +0.000 NA
ATOM     57  C   UNL     1     141.534 130.708 105.863  0.00  0.00    +0.000 A 
ATOM     58  C   UNL     1     142.198 131.509 105.414  0.00  0.00    +0.000 A 
ATOM     59  C   UNL     1     142.316 130.415 105.080  0.00  0.00    +0.000 A 
ATOM     60  C   UNL     1     142.499 131.051 105.042  0.00  0.00    +0.000 A 
ENDBRANCH  53  55
ENDBRANCH  52  53
ENDBRANCH   1  52
TORSDOF 18
ENDMDL
MODEL 3
REMARK VINA RESULT:      -9.4      0.094      3.446
REMARK  Name = 
REMARK  18 active torsions:
REMARK  status: ('A' for Active; 'I' for Inactive)
REMARK    1  A    between atoms: C_1  and  O_7
REMARK    2  A    between atoms: C_2  and  O_9
REMARK    3  A    between atoms: C_3  and  O_8
REMARK    4  A    between atoms: C_4  and  O_10
REMARK    5  A    between atoms: C_5  and  O_11
REMARK    6  A    between atoms: C_6  and  O_12
REMARK    7  A    between atoms: O_7  and  C_13
REMARK    8  A    between atoms: O_8  and  C_14
REMARK    9  A    between atoms: O_9  and  C_15
REMARK   10  A    between atoms: O_10  and  C_16
REMARK   11  A    between atoms: O_11  and  C_17
REMARK   12  A    between atoms: O_12  and  C_18
REMARK   13  A    between atoms: C_13  and  C_19
REMARK   14  A    between atoms: C_14  and  C_20
REMARK   15  A    between atoms: C_15  and  C_21
REMARK   16  A    between atoms: C_16  and  C_22
REMARK   17  A    between atoms: C_17  and  C_23
REMARK   18  A    between atoms: C_18  and  C_24
REMARK                            x       y       z     vdW  Elec       q    Type
REMARK                         _______ _______ _______ _____ _____    ______ ____
ROOT
ATOM      1  C   UNL     1     141.606 133.006 107.178  0.00  0.00    +0.000 C 
ATOM      2  C   UNL     1     141.364 132.866 106.573  0.00  0.00    +0.000 C 
ATOM      3  C   UNL     1     141.330 133.454 107.539  0.00  0.00    +0.000 C 
ATOM      4  C   UNL     1     140.857 133.179 106.356  0.00  0.00    +0.000 C 
ATOM      5  C   UNL     1     140.802 133.778 107.309  0.00  0.00    +0.000 C 
ATOM      6  C   UNL     1     140.572 133.641 106.729  0.00  0.00    +0.000 C 
ENDROOT
BRANCH   6   7
ATOM      7  O   UNL     1     140.047 133.974 106.518  0.00  0.00    +0.000 OA
BRANCH   7   8
ATOM      8  C   UNL     1     139.452 133.738 106.627  0.00  0.00    +0.000 C 
ATOM      9  O   UNL     1     139.381 133.177 106.947  0.00  0.00    +0.000 OA
BRANCH   8  10
ATOM     10  C   UNL     1     138.939 134.077 106.409  0.00  0.00    +0.000 A 
ATOM     11  N   UNL     1     138.494 134.965 105.852  0.00  0.00    +0.000 NA
ATOM     12  C   UNL     1     139.016 134.637 106.064  0.00  0.00    +0.000 A 
ATOM     13  C   UNL     1     138.336 133.855 106.536  0.00  0.00    +0.000 A 
ATOM     14  C   UNL     1     137.879 134.745 105.978  0.00  0.00    +0.000 A 
ATOM     15  C   UNL     1     137.801 134.185 106.323  0.00  0.00    +0.000 A 
ENDBRANCH   8  10
ENDBRANCH   7   8
ENDBRANCH   6   7
BRANCH   5  16
ATOM     16  O   UNL     1     140.520 134.236 107.680  0.00  0.00    +0.000 OA
BRANCH  16  17
ATOM     17  C   UNL     1     140.713 134.842 107.644  0.00  0.00    +0.000 C 
ATOM     18  O   UNL     1     141.197 135.019 107.228  0.00  0.00    +0.000 OA
BRANCH  17  19
ATOM     19  C   UNL     1     140.426 135.300 108.027  0.00  0.00    +0.000 A 
ATOM     20  N   UNL     1     139.662 135.580 108.818  0.00  0.00    +0.000 NA
ATOM     21  C   UNL     1     139.942 135.129 108.443  0.00  0.00    +0.000 A 
ATOM     22  C   UNL     1     140.623 135.914 107.991  0.00  0.00    +0.000 A 
ATOM     23  C   UNL     1     139.856 136.207 108.787  0.00  0.00    +0.000 A 
ATOM     24  C   UNL     1     140.340 136.378 108.371  0.00  0.00    +0.000 A 
ENDBRANCH  17  19
ENDBRANCH  16  17
ENDBRANCH   5  16
BRANCH   4  25
ATOM     25  O   UNL     1     140.604 133.054 105.760  0.00  0.00    +0.000 OA
BRANCH  25  26
ATOM     26  C   UNL     1     140.832 133.382 105.252  0.00  0.00    +0.000 C 
ATOM     27  O   UNL     1     141.298 133.837 105.326  0.00  0.00    +0.000 OA
BRANCH  26  28
ATOM     28  C   UNL     1     140.586 133.245 104.671  0.00  0.00    +0.000 A 
ATOM     29  N   UNL     1     140.568 133.436 103.556  0.00  0.00    +0.000 NA
ATOM     30  C   UNL     1     140.810 133.566 104.153  0.00  0.00    +0.000 A 
ATOM     31  C   UNL     1     140.122 132.798 104.588  0.00  0.00    +0.000 A 
ATOM     32  C   UNL     1     140.101 132.986 103.477  0.00  0.00    +0.000 A 
ATOM     33  C   UNL     1     139.880 132.666 104.007  0.00  0.00    +0.000 A 
ENDBRANCH  26  28
ENDBRANCH  25  26
ENDBRANCH   4  25
BRANCH   2  34
ATOM     34  O   UNL     1     141.643 132.413 106.207  0.00  0.00    +0.000 OA
BRANCH  34  35
ATOM     35  C   UNL     1     141.449 131.810 106.245  0.00  0.00    +0.000 C 
ATOM     36  O   UNL     1     140.958 131.636 106.645  0.00  0.00    +0.000 OA
BRANCH  35  37
ATOM     37  C   UNL     1     141.748 131.355 105.876  0.00  0.00    +0.000 A 
ATOM     38  N   UNL     1     142.517 131.078 105.097  0.00  0.00    +0.000 NA
ATOM     39  C   UNL     1     142.211 131.525 105.472  0.00  0.00    +0.000 A 
ATOM     40  C   UNL     1     141.576 130.733 105.919  0.00  0.00    +0.000 A 
ATOM     41  C   UNL     1     142.353 130.452 105.132  0.00  0.00    +0.000 A 
ATOM     42  C   UNL     1     141.877 130.275 105.547  0.00  0.00    +0.000 A 
ENDBRANCH  35  37
ENDBRANCH  34  35
ENDBRANCH   2  34
BRANCH   3  43
ATOM     43  O   UNL     1     141.586 133.571 108.126  0.00  0.00    +0.000 OA
BRANCH  43  44
ATOM     44  C   UNL     1     141.357 133.259 108.643  0.00  0.00    +0.000 C 
ATOM     45  O   UNL     1     140.885 132.804 108.575  0.00  0.00    +0.000 OA
BRANCH  44  46
ATOM     46  C   UNL     1     141.599 133.401 109.223  0.00  0.00    +0.000 A 
ATOM     47  N   UNL     1     142.291 133.990 109.894  0.00  0.00    +0.000 NA
ATOM     48  C   UNL     1     142.052 133.852 109.307  0.00  0.00    +0.000 A 
ATOM     49  C   UNL     1     141.382 133.082 109.742  0.00  0.00    +0.000 A 
ATOM     50  C   UNL     1     142.072 133.669 110.416  0.00  0.00    +0.000 A 
ATOM     51  C   UNL     1     141.616 133.214 110.339  0.00  0.00    +0.000 A 
ENDBRANCH  44  46
ENDBRANCH  43  44
ENDBRANCH   3  43
BRANCH   1  52
ATOM     52  O   UNL     1     142.131 132.686 107.411  0.00  0.00    +0.000 OA
BRANCH  52  53
ATOM     53  C   UNL     1     142.734 132.911 107.293  0.00  0.00    +0.000 C 
ATOM     54  O   UNL     1     142.822 133.459 106.955  0.00  0.00    +0.000 OA
BRANCH  53  55
ATOM     55  C   UNL     1     143.233 132.575 107.520  0.00  0.00    +0.000 A 
ATOM     56  N   UNL     1     144.372 132.465 107.638  0.00  0.00    +0.000 NA
ATOM     57  C   UNL     1     143.846 132.791 107.415  0.00  0.00    +0.000 A 
ATOM     58  C   UNL     1     143.155 132.012 107.861  0.00  0.00    +0.000 A 
ATOM     59  C   UNL     1     144.294 131.901 107.979  0.00  0.00    +0.000 A 
ATOM     60  C   UNL     1     143.680 131.678 108.089  0.00  0.00    +0.000 A 
ENDBRANCH  53  55
ENDBRANCH  52  53
ENDBRANCH   1  52
TORSDOF 18
ENDMDL
MODEL 4
REMARK VINA RESULT:      -9.4      0.360      3.701
REMARK  Name = 
REMARK  18 active torsions:
REMARK  status: ('A' for Active; 'I' for Inactive)
REMARK    1  A    between atoms: C_1  and  O_7
REMARK    2  A    between atoms: C_2  and  O_9
REMARK    3  A    between atoms: C_3  and  O_8
REMARK    4  A    between atoms: C_4  and  O_10
REMARK    5  A    between atoms: C_5  and  O_11
REMARK    6  A    between atoms: C_6  and  O_12
REMARK    7  A    between atoms: O_7  and  C_13
REMARK    8  A    between atoms: O_8  and  C_14
REMARK    9  A    between atoms: O_9  and  C_15
REMARK   10  A    between atoms: O_10  and  C_16
REMARK   11  A    between atoms: O_11  and  C_17
REMARK   12  A    between atoms: O_12  and  C_18
REMARK   13  A    between atoms: C_13  and  C_19
REMARK   14  A    between atoms: C_14  and  C_20
REMARK   15  A    between atoms: C_15  and  C_21
REMARK   16  A    between atoms: C_16  and  C_22
REMARK   17  A    between atoms: C_17  and  C_23
REMARK   18  A    between atoms: C_18  and  C_24
REMARK                            x       y       z     vdW  Elec       q    Type
REMARK                         _______ _______ _______ _____ _____    ______ ____
ROOT
ATOM      1  C   UNL     1     141.334 132.846 106.554  0.00  0.00    +0.000 C 
ATOM      2  C   UNL     1     140.804 133.176 106.321  0.00  0.00    +0.000 C 
ATOM      3  C   UNL     1     141.562 132.972 107.136  0.00  0.00    +0.000 C 
ATOM      4  C   UNL     1     140.525 133.618 106.681  0.00  0.00    +0.000 C 
ATOM      5  C   UNL     1     141.268 133.433 107.508  0.00  0.00    +0.000 C 
ATOM      6  C   UNL     1     140.760 133.748 107.283  0.00  0.00    +0.000 C 
ENDROOT
BRANCH   6   7
ATOM      7  O   UNL     1     140.482 134.202 107.667  0.00  0.00    +0.000 OA
BRANCH   7   8
ATOM      8  C   UNL     1     140.679 134.820 107.629  0.00  0.00    +0.000 C 
ATOM      9  O   UNL     1     141.157 134.981 107.219  0.00  0.00    +0.000 OA
BRANCH   8  10
ATOM     10  C   UNL     1     140.387 135.263 108.007  0.00  0.00    +0.000 A 
ATOM     11  N   UNL     1     139.614 135.548 108.794  0.00  0.00    +0.000 NA
ATOM     12  C   UNL     1     139.898 135.095 108.421  0.00  0.00    +0.000 A 
ATOM     13  C   UNL     1     140.583 135.886 107.975  0.00  0.00    +0.000 A 
ATOM     14  C   UNL     1     139.810 136.183 108.766  0.00  0.00    +0.000 A 
ATOM     15  C   UNL     1     140.299 136.352 108.353  0.00  0.00    +0.000 A 
ENDBRANCH   8  10
ENDBRANCH   7   8
ENDBRANCH   6   7
BRANCH   5  16
ATOM     16  O   UNL     1     141.502 133.561 108.105  0.00  0.00    +0.000 OA
BRANCH  16  17
ATOM     17  C   UNL     1     141.286 133.241 108.611  0.00  0.00    +0.000 C 
ATOM     18  O   UNL     1     140.817 132.778 108.543  0.00  0.00    +0.000 OA
BRANCH  17  19
ATOM     19  C   UNL     1     141.533 133.371 109.211  0.00  0.00    +0.000 A 
ATOM     20  N   UNL     1     142.232 133.967 109.877  0.00  0.00    +0.000 NA
ATOM     21  C   UNL     1     141.991 133.841 109.286  0.00  0.00    +0.000 A 
ATOM     22  C   UNL     1     141.322 133.037 109.721  0.00  0.00    +0.000 A 
ATOM     23  C   UNL     1     142.023 133.632 110.401  0.00  0.00    +0.000 A 
ATOM     24  C   UNL     1     141.565 133.162 110.326  0.00  0.00    +0.000 A 
ENDBRANCH  17  19
ENDBRANCH  16  17
ENDBRANCH   5  16
BRANCH   4  25
ATOM     25  O   UNL     1     139.999 133.955 106.468  0.00  0.00    +0.000 OA
BRANCH  25  26
ATOM     26  C   UNL     1     139.411 133.710 106.575  0.00  0.00    +0.000 C 
ATOM     27  O   UNL     1     139.335 133.140 106.888  0.00  0.00    +0.000 OA
BRANCH  26  28
ATOM     28  C   UNL     1     138.903 134.047 106.363  0.00  0.00    +0.000 A 
ATOM     29  N   UNL     1     137.781 134.152 106.268  0.00  0.00    +0.000 NA
ATOM     30  C   UNL     1     138.306 133.818 106.479  0.00  0.00    +0.000 A 
ATOM     31  C   UNL     1     138.969 134.606 106.039  0.00  0.00    +0.000 A 
ATOM     32  C   UNL     1     137.851 134.713 105.942  0.00  0.00    +0.000 A 
ATOM     33  C   UNL     1     138.459 134.938 105.830  0.00  0.00    +0.000 A 
ENDBRANCH  26  28
ENDBRANCH  25  26
ENDBRANCH   4  25
BRANCH   2  34
ATOM     34  O   UNL     1     140.573 133.049 105.732  0.00  0.00    +0.000 OA
BRANCH  34  35
ATOM     35  C   UNL     1     140.789 133.372 105.230  0.00  0.00    +0.000 C 
ATOM     36  O   UNL     1     141.243 133.841 105.298  0.00  0.00    +0.000 OA
BRANCH  35  37
ATOM     37  C   UNL     1     140.550 133.231 104.633  0.00  0.00    +0.000 A 
ATOM     38  N   UNL     1     139.851 132.637 103.975  0.00  0.00    +0.000 NA
ATOM     39  C   UNL     1     140.097 132.787 104.568  0.00  0.00    +0.000 A 
ATOM     40  C   UNL     1     140.771 133.540 104.111  0.00  0.00    +0.000 A 
ATOM     41  C   UNL     1     140.065 132.940 103.444  0.00  0.00    +0.000 A 
ATOM     42  C   UNL     1     140.530 133.397 103.510  0.00  0.00    +0.000 A 
ENDBRANCH  35  37
ENDBRANCH  34  35
ENDBRANCH   2  34
BRANCH   3  43
ATOM     43  O   UNL     1     142.080 132.636 107.339  0.00  0.00    +0.000 OA
BRANCH  43  44
ATOM     44  C   UNL     1     142.674 132.873 107.243  0.00  0.00    +0.000 C 
ATOM     45  O   UNL     1     142.756 133.438 106.915  0.00  0.00    +0.000 OA
BRANCH  44  46
ATOM     46  C   UNL     1     143.179 132.545 107.474  0.00  0.00    +0.000 A 
ATOM     47  N   UNL     1     143.627 131.670 108.029  0.00  0.00    +0.000 NA
ATOM     48  C   UNL     1     143.114 131.993 107.800  0.00  0.00    +0.000 A 
ATOM     49  C   UNL     1     143.775 132.777 107.376  0.00  0.00    +0.000 A 
ATOM     50  C   UNL     1     144.226 131.903 107.930  0.00  0.00    +0.000 A 
ATOM     51  C   UNL     1     144.299 132.458 107.602  0.00  0.00    +0.000 A 
ENDBRANCH  44  46
ENDBRANCH  43  44
ENDBRANCH   3  43
BRANCH   1  52
ATOM     52  O   UNL     1     141.629 132.387 106.187  0.00  0.00    +0.000 OA
BRANCH  52  53
ATOM     53  C   UNL     1     141.428 131.765 106.213  0.00  0.00    +0.000 C 
ATOM     54  O   UNL     1     140.940 131.591 106.604  0.00  0.00    +0.000 OA
BRANCH  53  55
ATOM     55  C   UNL     1     141.727 131.334 105.841  0.00  0.00    +0.000 A 
ATOM     56  N   UNL     1     141.835 130.244 105.490  0.00  0.00    +0.000 NA
ATOM     57  C   UNL     1     141.543 130.702 105.862  0.00  0.00    +0.000 A 
ATOM     58  C   UNL     1     142.220 131.502 105.430  0.00  0.00    +0.000 A 
ATOM     59  C   UNL     1     142.327 130.412 105.080  0.00  0.00    +0.000 A 
ATOM     60  C   UNL     1     142.518 131.046 105.053  0.00  0.00    +0.000 A 
ENDBRANCH  53  55
ENDBRANCH  52  53
ENDBRANCH   1  52
TORSDOF 18
ENDMDL
MODEL 5
REMARK VINA RESULT:      -9.2      0.868      3.568
REMARK  Name = 
REMARK  18 active torsions:
REMARK  status: ('A' for Active; 'I' for Inactive)
REMARK    1  A    between atoms: C_1  and  O_7
REMARK    2  A    between atoms: C_2  and  O_9
REMARK    3  A    between atoms: C_3  and  O_8
REMARK    4  A    between atoms: C_4  and  O_10
REMARK    5  A    between atoms: C_5  and  O_11
REMARK    6  A    between atoms: C_6  and  O_12
REMARK    7  A    between atoms: O_7  and  C_13
REMARK    8  A    between atoms: O_8  and  C_14
REMARK    9  A    between atoms: O_9  and  C_15
REMARK   10  A    between atoms: O_10  and  C_16
REMARK   11  A    between atoms: O_11  and  C_17
REMARK   12  A    between atoms: O_12  and  C_18
REMARK   13  A    between atoms: C_13  and  C_19
REMARK   14  A    between atoms: C_14  and  C_20
REMARK   15  A    between atoms: C_15  and  C_21
REMARK   16  A    between atoms: C_16  and  C_22
REMARK   17  A    between atoms: C_17  and  C_23
REMARK   18  A    between atoms: C_18  and  C_24
REMARK                            x       y       z     vdW  Elec       q    Type
REMARK                         _______ _______ _______ _____ _____    ______ ____
ROOT
ATOM      1  C   UNL     1     141.194 133.117 107.449  0.00  0.00    +0.000 C 
ATOM      2  C   UNL     1     141.662 132.771 107.772  0.00  0.00    +0.000 C 
ATOM      3  C   UNL     1     141.088 133.015 106.828  0.00  0.00    +0.000 C 
ATOM      4  C   UNL     1     142.004 132.337 107.461  0.00  0.00    +0.000 C 
ATOM      5  C   UNL     1     141.446 132.562 106.507  0.00  0.00    +0.000 C 
ATOM      6  C   UNL     1     141.894 132.231 106.819  0.00  0.00    +0.000 C 
ENDROOT
BRANCH   6   7
ATOM      7  O   UNL     1     142.241 131.785 106.483  0.00  0.00    +0.000 OA
BRANCH   7   8
ATOM      8  C   UNL     1     142.033 131.170 106.459  0.00  0.00    +0.000 C 
ATOM      9  O   UNL     1     141.479 131.003 106.755  0.00  0.00    +0.000 OA
BRANCH   8  10
ATOM     10  C   UNL     1     142.393 130.734 106.133  0.00  0.00    +0.000 A 
ATOM     11  N   UNL     1     143.305 130.462 105.507  0.00  0.00    +0.000 NA
ATOM     12  C   UNL     1     142.955 130.908 105.830  0.00  0.00    +0.000 A 
ATOM     13  C   UNL     1     142.191 130.112 106.107  0.00  0.00    +0.000 A 
ATOM     14  C   UNL     1     143.105 129.829 105.478  0.00  0.00    +0.000 A 
ATOM     15  C   UNL     1     142.542 129.654 105.781  0.00  0.00    +0.000 A 
ENDBRANCH   8  10
ENDBRANCH   7   8
ENDBRANCH   6   7
BRANCH   5  16
ATOM     16  O   UNL     1     141.338 132.457 105.871  0.00  0.00    +0.000 OA
BRANCH  16  17
ATOM     17  C   UNL     1     141.655 132.792 105.432  0.00  0.00    +0.000 C 
ATOM     18  O   UNL     1     142.104 133.245 105.611  0.00  0.00    +0.000 OA
BRANCH  17  19
ATOM     19  C   UNL     1     141.534 132.686 104.790  0.00  0.00    +0.000 A 
ATOM     20  N   UNL     1     140.983 132.121 103.974  0.00  0.00    +0.000 NA
ATOM     21  C   UNL     1     141.100 132.223 104.606  0.00  0.00    +0.000 A 
ATOM     22  C   UNL     1     141.843 133.038 104.345  0.00  0.00    +0.000 A 
ATOM     23  C   UNL     1     141.293 132.475 103.516  0.00  0.00    +0.000 A 
ATOM     24  C   UNL     1     141.727 132.938 103.700  0.00  0.00    +0.000 A 
ENDBRANCH  17  19
ENDBRANCH  16  17
ENDBRANCH   5  16
BRANCH   4  25
ATOM     25  O   UNL     1     142.471 131.984 107.764  0.00  0.00    +0.000 OA
BRANCH  25  26
ATOM     26  C   UNL     1     143.073 132.218 107.783  0.00  0.00    +0.000 C 
ATOM     27  O   UNL     1     143.221 132.788 107.495  0.00  0.00    +0.000 OA
BRANCH  26  28
ATOM     28  C   UNL     1     143.520 131.873 108.093  0.00  0.00    +0.000 A 
ATOM     29  N   UNL     1     144.591 131.761 108.440  0.00  0.00    +0.000 NA
ATOM     30  C   UNL     1     144.127 132.104 108.126  0.00  0.00    +0.000 A 
ATOM     31  C   UNL     1     143.385 131.303 108.374  0.00  0.00    +0.000 A 
ATOM     32  C   UNL     1     144.451 131.189 108.720  0.00  0.00    +0.000 A 
ATOM     33  C   UNL     1     143.834 130.962 108.682  0.00  0.00    +0.000 A 
ENDBRANCH  26  28
ENDBRANCH  25  26
ENDBRANCH   4  25
BRANCH   2  34
ATOM     34  O   UNL     1     141.769 132.874 108.401  0.00  0.00    +0.000 OA
BRANCH  34  35
ATOM     35  C   UNL     1     141.449 132.541 108.836  0.00  0.00    +0.000 C 
ATOM     36  O   UNL     1     141.006 132.089 108.660  0.00  0.00    +0.000 OA
BRANCH  35  37
ATOM     37  C   UNL     1     141.566 132.655 109.474  0.00  0.00    +0.000 A 
ATOM     38  N   UNL     1     142.112 133.225 110.281  0.00  0.00    +0.000 NA
ATOM     39  C   UNL     1     141.986 133.103 109.646  0.00  0.00    +0.000 A 
ATOM     40  C   UNL     1     141.258 132.315 109.929  0.00  0.00    +0.000 A 
ATOM     41  C   UNL     1     141.809 132.890 110.747  0.00  0.00    +0.000 A 
ATOM     42  C   UNL     1     141.377 132.429 110.570  0.00  0.00    +0.000 A 
ENDBRANCH  35  37
ENDBRANCH  34  35
ENDBRANCH   2  34
BRANCH   3  43
ATOM     43  O   UNL     1     140.625 133.367 106.536  0.00  0.00    +0.000 OA
BRANCH  43  44
ATOM     44  C   UNL     1     140.023 133.136 106.497  0.00  0.00    +0.000 C 
ATOM     45  O   UNL     1     139.873 132.555 106.769  0.00  0.00    +0.000 OA
BRANCH  44  46
ATOM     46  C   UNL     1     139.577 133.483 106.188  0.00  0.00    +0.000 A 
ATOM     47  N   UNL     1     139.260 134.387 105.589  0.00  0.00    +0.000 NA
ATOM     48  C   UNL     1     139.714 134.042 105.898  0.00  0.00    +0.000 A 
ATOM     49  C   UNL     1     138.969 133.265 106.165  0.00  0.00    +0.000 A 
ATOM     50  C   UNL     1     138.648 134.167 105.566  0.00  0.00    +0.000 A 
ATOM     51  C   UNL     1     138.503 133.605 105.855  0.00  0.00    +0.000 A 
ENDBRANCH  44  46
ENDBRANCH  43  44
ENDBRANCH   3  43
BRANCH   1  52
ATOM     52  O   UNL     1     140.835 133.570 107.764  0.00  0.00    +0.000 OA
BRANCH  52  53
ATOM     53  C   UNL     1     141.042 134.189 107.801  0.00  0.00    +0.000 C 
ATOM     54  O   UNL     1     141.597 134.370 107.515  0.00  0.00    +0.000 OA
BRANCH  53  55
ATOM     55  C   UNL     1     140.682 134.611 108.126  0.00  0.00    +0.000 A 
ATOM     56  N   UNL     1     139.737 134.827 108.746  0.00  0.00    +0.000 NA
ATOM     57  C   UNL     1     140.121 134.413 108.408  0.00  0.00    +0.000 A 
ATOM     58  C   UNL     1     140.854 135.248 108.189  0.00  0.00    +0.000 A 
ATOM     59  C   UNL     1     139.910 135.464 108.809  0.00  0.00    +0.000 A 
ATOM     60  C   UNL     1     140.472 135.671 108.527  0.00  0.00    +0.000 A 
ENDBRANCH  53  55
ENDBRANCH  52  53
ENDBRANCH   1  52
TORSDOF 18
ENDMDL
MODEL 6
REMARK VINA RESULT:      -9.2      0.178      3.452
REMARK  Name = 
REMARK  18 active torsions:
REMARK  status: ('A' for Active; 'I' for Inactive)
REMARK    1  A    between atoms: C_1  and  O_7
REMARK    2  A    between atoms: C_2  and  O_9
REMARK    3  A    between atoms: C_3  and  O_8
REMARK    4  A    between atoms: C_4  and  O_10
REMARK    5  A    between atoms: C_5  and  O_11
REMARK    6  A    between atoms: C_6  and  O_12
REMARK    7  A    between atoms: O_7  and  C_13
REMARK    8  A    between atoms: O_8  and  C_14
REMARK    9  A    between atoms: O_9  and  C_15
REMARK   10  A    between atoms: O_10  and  C_16
REMARK   11  A    between atoms: O_11  and  C_17
REMARK   12  A    between atoms: O_12  and  C_18
REMARK   13  A    between atoms: C_13  and  C_19
REMARK   14  A    between atoms: C_14  and  C_20
REMARK   15  A    between atoms: C_15  and  C_21
REMARK   16  A    between atoms: C_16  and  C_22
REMARK   17  A    between atoms: C_17  and  C_23
REMARK   18  A    between atoms: C_18  and  C_24
REMARK                            x       y       z     vdW  Elec       q    Type
REMARK                         _______ _______ _______ _____ _____    ______ ____
ROOT
ATOM      1  C   UNL     1     140.853 133.225 106.362  0.00  0.00    +0.000 C 
ATOM      2  C   UNL     1     140.557 133.690 106.736  0.00  0.00    +0.000 C 
ATOM      3  C   UNL     1     141.373 132.922 106.574  0.00  0.00    +0.000 C 
ATOM      4  C   UNL     1     140.794 133.832 107.307  0.00  0.00    +0.000 C 
ATOM      5  C   UNL     1     141.616 133.073 107.170  0.00  0.00    +0.000 C 
ATOM      6  C   UNL     1     141.331 133.519 107.527  0.00  0.00    +0.000 C 
ENDROOT
BRANCH   6   7
ATOM      7  O   UNL     1     141.587 133.655 108.117  0.00  0.00    +0.000 OA
BRANCH   7   8
ATOM      8  C   UNL     1     141.378 133.334 108.640  0.00  0.00    +0.000 C 
ATOM      9  O   UNL     1     140.925 132.872 108.576  0.00  0.00    +0.000 OA
BRANCH   8  10
ATOM     10  C   UNL     1     141.632 133.487 109.221  0.00  0.00    +0.000 A 
ATOM     11  N   UNL     1     142.334 134.105 109.870  0.00  0.00    +0.000 NA
ATOM     12  C   UNL     1     142.088 133.962 109.283  0.00  0.00    +0.000 A 
ATOM     13  C   UNL     1     141.429 133.161 109.751  0.00  0.00    +0.000 A 
ATOM     14  C   UNL     1     142.132 133.777 110.413  0.00  0.00    +0.000 A 
ATOM     15  C   UNL     1     141.675 133.302 110.351  0.00  0.00    +0.000 A 
ENDBRANCH   8  10
ENDBRANCH   7   8
ENDBRANCH   6   7
BRANCH   5  16
ATOM     16  O   UNL     1     142.149 132.763 107.388  0.00  0.00    +0.000 OA
BRANCH  16  17
ATOM     17  C   UNL     1     142.729 132.995 107.265  0.00  0.00    +0.000 C 
ATOM     18  O   UNL     1     142.802 133.554 106.918  0.00  0.00    +0.000 OA
BRANCH  17  19
ATOM     19  C   UNL     1     143.264 132.674 107.486  0.00  0.00    +0.000 A 
ATOM     20  N   UNL     1     143.722 131.803 108.050  0.00  0.00    +0.000 NA
ATOM     21  C   UNL     1     143.196 132.117 107.834  0.00  0.00    +0.000 A 
ATOM     22  C   UNL     1     143.851 132.909 107.359  0.00  0.00    +0.000 A 
ATOM     23  C   UNL     1     144.324 132.036 107.926  0.00  0.00    +0.000 A 
ATOM     24  C   UNL     1     144.392 132.593 107.577  0.00  0.00    +0.000 A 
ENDBRANCH  17  19
ENDBRANCH  16  17
ENDBRANCH   5  16
BRANCH   4  25
ATOM     25  O   UNL     1     140.514 134.289 107.692  0.00  0.00    +0.000 OA
BRANCH  25  26
ATOM     26  C   UNL     1     140.704 134.903 107.631  0.00  0.00    +0.000 C 
ATOM     27  O   UNL     1     141.169 135.071 107.200  0.00  0.00    +0.000 OA
BRANCH  26  28
ATOM     28  C   UNL     1     140.420 135.344 108.006  0.00  0.00    +0.000 A 
ATOM     29  N   UNL     1     139.658 135.591 108.805  0.00  0.00    +0.000 NA
ATOM     30  C   UNL     1     139.954 135.152 108.417  0.00  0.00    +0.000 A 
ATOM     31  C   UNL     1     140.584 135.972 107.988  0.00  0.00    +0.000 A 
ATOM     32  C   UNL     1     139.825 136.221 108.784  0.00  0.00    +0.000 A 
ATOM     33  C   UNL     1     140.298 136.408 108.365  0.00  0.00    +0.000 A 
ENDBRANCH  26  28
ENDBRANCH  25  26
ENDBRANCH   4  25
BRANCH   2  34
ATOM     34  O   UNL     1     140.031 133.996 106.521  0.00  0.00    +0.000 OA
BRANCH  34  35
ATOM     35  C   UNL     1     139.454 133.758 106.640  0.00  0.00    +0.000 C 
ATOM     36  O   UNL     1     139.380 133.198 106.974  0.00  0.00    +0.000 OA
BRANCH  35  37
ATOM     37  C   UNL     1     138.925 134.083 106.421  0.00  0.00    +0.000 A 
ATOM     38  N   UNL     1     138.473 134.951 105.859  0.00  0.00    +0.000 NA
ATOM     39  C   UNL     1     138.996 134.618 106.082  0.00  0.00    +0.000 A 
ATOM     40  C   UNL     1     138.331 133.863 106.548  0.00  0.00    +0.000 A 
ATOM     41  C   UNL     1     137.872 134.740 105.980  0.00  0.00    +0.000 A 
ATOM     42  C   UNL     1     137.798 134.189 106.329  0.00  0.00    +0.000 A 
ENDBRANCH  35  37
ENDBRANCH  34  35
ENDBRANCH   2  34
BRANCH   3  43
ATOM     43  O   UNL     1     141.642 132.473 106.189  0.00  0.00    +0.000 OA
BRANCH  43  44
ATOM     44  C   UNL     1     141.467 131.854 106.247  0.00  0.00    +0.000 C 
ATOM     45  O   UNL     1     140.994 131.682 106.672  0.00  0.00    +0.000 OA
BRANCH  44  46
ATOM     46  C   UNL     1     141.764 131.412 105.884  0.00  0.00    +0.000 A 
ATOM     47  N   UNL     1     142.518 131.116 105.096  0.00  0.00    +0.000 NA
ATOM     48  C   UNL     1     142.223 131.566 105.459  0.00  0.00    +0.000 A 
ATOM     49  C   UNL     1     141.596 130.791 105.944  0.00  0.00    +0.000 A 
ATOM     50  C   UNL     1     142.349 130.491 105.158  0.00  0.00    +0.000 A 
ATOM     51  C   UNL     1     141.887 130.329 105.583  0.00  0.00    +0.000 A 
ENDBRANCH  44  46
ENDBRANCH  43  44
ENDBRANCH   3  43
BRANCH   1  52
ATOM     52  O   UNL     1     140.614 133.072 105.768  0.00  0.00    +0.000 OA
BRANCH  52  53
ATOM     53  C   UNL     1     140.812 133.400 105.238  0.00  0.00    +0.000 C 
ATOM     54  O   UNL     1     141.255 133.873 105.288  0.00  0.00    +0.000 OA
BRANCH  53  55
ATOM     55  C   UNL     1     140.556 133.242 104.670  0.00  0.00    +0.000 A 
ATOM     56  N   UNL     1     140.511 133.404 103.532  0.00  0.00    +0.000 NA
ATOM     57  C   UNL     1     140.758 133.549 104.124  0.00  0.00    +0.000 A 
ATOM     58  C   UNL     1     140.089 132.775 104.610  0.00  0.00    +0.000 A 
ATOM     59  C   UNL     1     140.044 132.937 103.472  0.00  0.00    +0.000 A 
ATOM     60  C   UNL     1     139.835 132.624 104.017  0.00  0.00    +0.000 A 
ENDBRANCH  53  55
ENDBRANCH  52  53
ENDBRANCH   1  52
TORSDOF 18
ENDMDL
MODEL 7
REMARK VINA RESULT:      -9.1      1.767      4.462
REMARK  Name = 
REMARK  18 active torsions:
REMARK  status: ('A' for Active; 'I' for Inactive)
REMARK    1  A    between atoms: C_1  and  O_7
REMARK    2  A    between atoms: C_2  and  O_9
REMARK    3  A    between atoms: C_3  and  O_8
REMARK    4  A    between atoms: C_4  and  O_10
REMARK    5  A    between atoms: C_5  and  O_11
REMARK    6  A    between atoms: C_6  and  O_12
REMARK    7  A    between atoms: O_7  and  C_13
REMARK    8  A    between atoms: O_8  and  C_14
REMARK    9  A    between atoms: O_9  and  C_15
REMARK   10  A    between atoms: O_10  and  C_16
REMARK   11  A    between atoms: O_11  and  C_17
REMARK   12  A    between atoms: O_12  and  C_18
REMARK   13  A    between atoms: C_13  and  C_19
REMARK   14  A    between atoms: C_14  and  C_20
REMARK   15  A    between atoms: C_15  and  C_21
REMARK   16  A    between atoms: C_16  and  C_22
REMARK   17  A    between atoms: C_17  and  C_23
REMARK   18  A    between atoms: C_18  and  C_24
REMARK                            x       y       z     vdW  Elec       q    Type
REMARK                         _______ _______ _______ _____ _____    ______ ____
ROOT
ATOM      1  C   UNL     1     142.976 132.063 107.454  0.00  0.00    +0.000 C 
ATOM      2  C   UNL     1     143.152 132.666 107.678  0.00  0.00    +0.000 C 
ATOM      3  C   UNL     1     142.612 132.006 106.933  0.00  0.00    +0.000 C 
ATOM      4  C   UNL     1     142.956 133.185 107.371  0.00  0.00    +0.000 C 
ATOM      5  C   UNL     1     142.411 132.550 106.616  0.00  0.00    +0.000 C 
ATOM      6  C   UNL     1     142.580 133.126 106.833  0.00  0.00    +0.000 C 
ENDROOT
BRANCH   6   7
ATOM      7  O   UNL     1     142.369 133.655 106.504  0.00  0.00    +0.000 OA
BRANCH   7   8
ATOM      8  C   UNL     1     142.734 133.903 106.028  0.00  0.00    +0.000 C 
ATOM      9  O   UNL     1     143.296 133.618 105.869  0.00  0.00    +0.000 OA
BRANCH   8  10
ATOM     10  C   UNL     1     142.521 134.437 105.721  0.00  0.00    +0.000 A 
ATOM     11  N   UNL     1     141.743 135.254 105.564  0.00  0.00    +0.000 NA
ATOM     12  C   UNL     1     141.944 134.720 105.879  0.00  0.00    +0.000 A 
ATOM     13  C   UNL     1     142.888 134.697 105.245  0.00  0.00    +0.000 A 
ATOM     14  C   UNL     1     142.112 135.523 105.080  0.00  0.00    +0.000 A 
ATOM     15  C   UNL     1     142.689 135.241 104.920  0.00  0.00    +0.000 A 
ENDBRANCH   8  10
ENDBRANCH   7   8
ENDBRANCH   6   7
BRANCH   5  16
ATOM     16  O   UNL     1     142.038 132.491 106.082  0.00  0.00    +0.000 OA
BRANCH  16  17
ATOM     17  C   UNL     1     141.403 132.475 106.134  0.00  0.00    +0.000 C 
ATOM     18  O   UNL     1     141.111 132.524 106.726  0.00  0.00    +0.000 OA
BRANCH  17  19
ATOM     19  C   UNL     1     141.033 132.409 105.589  0.00  0.00    +0.000 A 
ATOM     20  N   UNL     1     140.954 132.297 104.463  0.00  0.00    +0.000 NA
ATOM     21  C   UNL     1     141.320 132.362 104.996  0.00  0.00    +0.000 A 
ATOM     22  C   UNL     1     140.389 132.391 105.642  0.00  0.00    +0.000 A 
ATOM     23  C   UNL     1     140.299 132.278 104.508  0.00  0.00    +0.000 A 
ATOM     24  C   UNL     1     140.012 132.325 105.101  0.00  0.00    +0.000 A 
ENDBRANCH  17  19
ENDBRANCH  16  17
ENDBRANCH   5  16
BRANCH   4  25
ATOM     25  O   UNL     1     143.119 133.790 107.578  0.00  0.00    +0.000 OA
BRANCH  25  26
ATOM     26  C   UNL     1     142.736 134.084 108.007  0.00  0.00    +0.000 C 
ATOM     27  O   UNL     1     142.192 133.794 108.228  0.00  0.00    +0.000 OA
BRANCH  26  28
ATOM     28  C   UNL     1     142.909 134.672 108.209  0.00  0.00    +0.000 A 
ATOM     29  N   UNL     1     142.687 135.583 108.843  0.00  0.00    +0.000 NA
ATOM     30  C   UNL     1     142.523 134.984 108.629  0.00  0.00    +0.000 A 
ATOM     31  C   UNL     1     143.453 134.962 108.007  0.00  0.00    +0.000 A 
ATOM     32  C   UNL     1     143.236 135.871 108.638  0.00  0.00    +0.000 A 
ATOM     33  C   UNL     1     143.621 135.548 108.212  0.00  0.00    +0.000 A 
ENDBRANCH  26  28
ENDBRANCH  25  26
ENDBRANCH   4  25
BRANCH   2  34
ATOM     34  O   UNL     1     143.520 132.724 108.206  0.00  0.00    +0.000 OA
BRANCH  34  35
ATOM     35  C   UNL     1     144.152 132.737 108.151  0.00  0.00    +0.000 C 
ATOM     36  O   UNL     1     144.444 132.696 107.564  0.00  0.00    +0.000 OA
BRANCH  35  37
ATOM     37  C   UNL     1     144.517 132.793 108.696  0.00  0.00    +0.000 A 
ATOM     38  N   UNL     1     144.591 132.892 109.818  0.00  0.00    +0.000 NA
ATOM     39  C   UNL     1     144.236 132.835 109.266  0.00  0.00    +0.000 A 
ATOM     40  C   UNL     1     145.162 132.805 108.657  0.00  0.00    +0.000 A 
ATOM     41  C   UNL     1     145.239 132.905 109.792  0.00  0.00    +0.000 A 
ATOM     42  C   UNL     1     145.530 132.861 109.205  0.00  0.00    +0.000 A 
ENDBRANCH  35  37
ENDBRANCH  34  35
ENDBRANCH   2  34
BRANCH   3  43
ATOM     43  O   UNL     1     142.456 131.407 106.736  0.00  0.00    +0.000 OA
BRANCH  43  44
ATOM     44  C   UNL     1     142.825 131.107 106.298  0.00  0.00    +0.000 C 
ATOM     45  O   UNL     1     143.370 131.396 106.069  0.00  0.00    +0.000 OA
BRANCH  44  46
ATOM     46  C   UNL     1     142.648 130.522 106.092  0.00  0.00    +0.000 A 
ATOM     47  N   UNL     1     141.932 129.648 106.076  0.00  0.00    +0.000 NA
ATOM     48  C   UNL     1     142.104 130.237 106.287  0.00  0.00    +0.000 A 
ATOM     49  C   UNL     1     143.028 130.208 105.674  0.00  0.00    +0.000 A 
ATOM     50  C   UNL     1     142.315 129.332 105.656  0.00  0.00    +0.000 A 
ATOM     51  C   UNL     1     142.864 129.613 105.455  0.00  0.00    +0.000 A 
ENDBRANCH  44  46
ENDBRANCH  43  44
ENDBRANCH   3  43
BRANCH   1  52
ATOM     52  O   UNL     1     143.175 131.519 107.766  0.00  0.00    +0.000 OA
BRANCH  52  53
ATOM     53  C   UNL     1     142.815 131.266 108.250  0.00  0.00    +0.000 C 
ATOM     54  O   UNL     1     142.249 131.538 108.419  0.00  0.00    +0.000 OA
BRANCH  53  55
ATOM     55  C   UNL     1     143.037 130.744 108.553  0.00  0.00    +0.000 A 
ATOM     56  N   UNL     1     142.897 129.947 109.370  0.00  0.00    +0.000 NA
ATOM     57  C   UNL     1     142.690 130.482 109.047  0.00  0.00    +0.000 A 
ATOM     58  C   UNL     1     143.609 130.454 108.385  0.00  0.00    +0.000 A 
ATOM     59  C   UNL     1     143.469 129.657 109.202  0.00  0.00    +0.000 A 
ATOM     60  C   UNL     1     143.824 129.916 108.706  0.00  0.00    +0.000 A 
ENDBRANCH  53  55
ENDBRANCH  52  53
ENDBRANCH   1  52
TORSDOF 18
ENDMDL
MODEL 8
REMARK VINA RESULT:      -9.0      1.803      3.914
REMARK  Name = 
REMARK  18 active torsions:
REMARK  status: ('A' for Active; 'I' for Inactive)
REMARK    1  A    between atoms: C_1  and  O_7
REMARK    2  A    between atoms: C_2  and  O_9
REMARK    3  A    between atoms: C_3  and  O_8
REMARK    4  A    between atoms: C_4  and  O_10
REMARK    5  A    between atoms: C_5  and  O_11
REMARK    6  A    between atoms: C_6  and  O_12
REMARK    7  A    between atoms: O_7  and  C_13
REMARK    8  A    between atoms: O_8  and  C_14
REMARK    9  A    between atoms: O_9  and  C_15
REMARK   10  A    between atoms: O_10  and  C_16
REMARK   11  A    between atoms: O_11  and  C_17
REMARK   12  A    between atoms: O_12  and  C_18
REMARK   13  A    between atoms: C_13  and  C_19
REMARK   14  A    between atoms: C_14  and  C_20
REMARK   15  A    between atoms: C_15  and  C_21
REMARK   16  A    between atoms: C_16  and  C_22
REMARK   17  A    between atoms: C_17  and  C_23
REMARK   18  A    between atoms: C_18  and  C_24
REMARK                            x       y       z     vdW  Elec       q    Type
REMARK                         _______ _______ _______ _____ _____    ______ ____
ROOT
ATOM      1  C   UNL     1     142.373 132.486 106.600  0.00  0.00    +0.000 C 
ATOM      2  C   UNL     1     142.570 133.094 106.791  0.00  0.00    +0.000 C 
ATOM      3  C   UNL     1     142.592 131.967 106.900  0.00  0.00    +0.000 C 
ATOM      4  C   UNL     1     142.976 133.156 107.274  0.00  0.00    +0.000 C 
ATOM      5  C   UNL     1     143.016 132.037 107.403  0.00  0.00    +0.000 C 
ATOM      6  C   UNL     1     143.202 132.620 107.584  0.00  0.00    +0.000 C 
ENDROOT
BRANCH   6   7
ATOM      7  O   UNL     1     143.624 132.669 108.086  0.00  0.00    +0.000 OA
BRANCH   7   8
ATOM      8  C   UNL     1     144.263 132.678 107.968  0.00  0.00    +0.000 C 
ATOM      9  O   UNL     1     144.480 132.628 107.358  0.00  0.00    +0.000 OA
BRANCH   8  10
ATOM     10  C   UNL     1     144.670 132.738 108.474  0.00  0.00    +0.000 A 
ATOM     11  N   UNL     1     144.863 132.854 109.591  0.00  0.00    +0.000 NA
ATOM     12  C   UNL     1     144.445 132.794 109.094  0.00  0.00    +0.000 A 
ATOM     13  C   UNL     1     145.315 132.742 108.363  0.00  0.00    +0.000 A 
ATOM     14  C   UNL     1     145.520 132.858 109.483  0.00  0.00    +0.000 A 
ATOM     15  C   UNL     1     145.746 132.802 108.864  0.00  0.00    +0.000 A 
ENDBRANCH   8  10
ENDBRANCH   7   8
ENDBRANCH   6   7
BRANCH   5  16
ATOM     16  O   UNL     1     143.240 131.505 107.710  0.00  0.00    +0.000 OA
BRANCH  16  17
ATOM     17  C   UNL     1     142.926 131.268 108.211  0.00  0.00    +0.000 C 
ATOM     18  O   UNL     1     142.372 131.556 108.430  0.00  0.00    +0.000 OA
BRANCH  17  19
ATOM     19  C   UNL     1     143.157 130.726 108.514  0.00  0.00    +0.000 A 
ATOM     20  N   UNL     1     143.933 129.903 108.598  0.00  0.00    +0.000 NA
ATOM     21  C   UNL     1     143.708 130.434 108.298  0.00  0.00    +0.000 A 
ATOM     22  C   UNL     1     142.840 130.487 109.023  0.00  0.00    +0.000 A 
ATOM     23  C   UNL     1     143.616 129.653 109.116  0.00  0.00    +0.000 A 
ATOM     24  C   UNL     1     143.065 129.945 109.332  0.00  0.00    +0.000 A 
ENDBRANCH  17  19
ENDBRANCH  16  17
ENDBRANCH   5  16
BRANCH   4  25
ATOM     25  O   UNL     1     143.182 133.749 107.477  0.00  0.00    +0.000 OA
BRANCH  25  26
ATOM     26  C   UNL     1     142.836 134.059 107.926  0.00  0.00    +0.000 C 
ATOM     27  O   UNL     1     142.296 133.790 108.181  0.00  0.00    +0.000 OA
BRANCH  26  28
ATOM     28  C   UNL     1     143.042 134.642 108.113  0.00  0.00    +0.000 A 
ATOM     29  N   UNL     1     142.910 135.549 108.775  0.00  0.00    +0.000 NA
ATOM     30  C   UNL     1     142.711 134.956 108.576  0.00  0.00    +0.000 A 
ATOM     31  C   UNL     1     143.566 134.924 107.855  0.00  0.00    +0.000 A 
ATOM     32  C   UNL     1     143.438 135.830 108.513  0.00  0.00    +0.000 A 
ATOM     33  C   UNL     1     143.767 135.505 108.045  0.00  0.00    +0.000 A 
ENDBRANCH  26  28
ENDBRANCH  25  26
ENDBRANCH   4  25
BRANCH   2  34
ATOM     34  O   UNL     1     142.348 133.619 106.487  0.00  0.00    +0.000 OA
BRANCH  34  35
ATOM     35  C   UNL     1     142.663 133.853 105.988  0.00  0.00    +0.000 C 
ATOM     36  O   UNL     1     143.216 133.573 105.773  0.00  0.00    +0.000 OA
BRANCH  35  37
ATOM     37  C   UNL     1     142.425 134.385 105.683  0.00  0.00    +0.000 A 
ATOM     38  N   UNL     1     141.644 135.196 105.596  0.00  0.00    +0.000 NA
ATOM     39  C   UNL     1     141.891 134.662 105.894  0.00  0.00    +0.000 A 
ATOM     40  C   UNL     1     142.730 134.632 105.169  0.00  0.00    +0.000 A 
ATOM     41  C   UNL     1     141.941 135.452 105.080  0.00  0.00    +0.000 A 
ATOM     42  C   UNL     1     142.491 135.168 104.863  0.00  0.00    +0.000 A 
ENDBRANCH  35  37
ENDBRANCH  34  35
ENDBRANCH   2  34
BRANCH   3  43
ATOM     43  O   UNL     1     142.385 131.387 106.694  0.00  0.00    +0.000 OA
BRANCH  43  44
ATOM     44  C   UNL     1     142.726 131.064 106.250  0.00  0.00    +0.000 C 
ATOM     45  O   UNL     1     143.264 131.334 105.984  0.00  0.00    +0.000 OA
BRANCH  44  46
ATOM     46  C   UNL     1     142.528 130.476 106.075  0.00  0.00    +0.000 A 
ATOM     47  N   UNL     1     141.802 129.613 106.134  0.00  0.00    +0.000 NA
ATOM     48  C   UNL     1     141.995 130.205 106.315  0.00  0.00    +0.000 A 
ATOM     49  C   UNL     1     142.876 130.143 105.644  0.00  0.00    +0.000 A 
ATOM     50  C   UNL     1     142.152 129.278 105.700  0.00  0.00    +0.000 A 
ATOM     51  C   UNL     1     142.690 129.544 105.455  0.00  0.00    +0.000 A 
ENDBRANCH  44  46
ENDBRANCH  43  44
ENDBRANCH   3  43
BRANCH   1  52
ATOM     52  O   UNL     1     141.952 132.413 106.100  0.00  0.00    +0.000 OA
BRANCH  52  53
ATOM     53  C   UNL     1     141.307 132.409 106.210  0.00  0.00    +0.000 C 
ATOM     54  O   UNL     1     141.074 132.462 106.815  0.00  0.00    +0.000 OA
BRANCH  53  55
ATOM     55  C   UNL     1     140.913 132.352 105.706  0.00  0.00    +0.000 A 
ATOM     56  N   UNL     1     139.839 132.295 105.297  0.00  0.00    +0.000 NA
ATOM     57  C   UNL     1     140.262 132.352 105.799  0.00  0.00    +0.000 A 
ATOM     58  C   UNL     1     141.139 132.291 105.085  0.00  0.00    +0.000 A 
ATOM     59  C   UNL     1     140.066 132.235 104.677  0.00  0.00    +0.000 A 
ATOM     60  C   UNL     1     140.721 132.233 104.575  0.00  0.00    +0.000 A 
ENDBRANCH  53  55
ENDBRANCH  52  53
ENDBRANCH   1  52
TORSDOF 18
ENDMDL
MODEL 9
REMARK VINA RESULT:      -8.8      0.261      4.237
REMARK  Name = 
REMARK  18 active torsions:
REMARK  status: ('A' for Active; 'I' for Inactive)
REMARK    1  A    between atoms: C_1  and  O_7
REMARK    2  A    between atoms: C_2  and  O_9
REMARK    3  A    between atoms: C_3  and  O_8
REMARK    4  A    between atoms: C_4  and  O_10
REMARK    5  A    between atoms: C_5  and  O_11
REMARK    6  A    between atoms: C_6  and  O_12
REMARK    7  A    between atoms: O_7  and  C_13
REMARK    8  A    between atoms: O_8  and  C_14
REMARK    9  A    between atoms: O_9  and  C_15
REMARK   10  A    between atoms: O_10  and  C_16
REMARK   11  A    between atoms: O_11  and  C_17
REMARK   12  A    between atoms: O_12  and  C_18
REMARK   13  A    between atoms: C_13  and  C_19
REMARK   14  A    between atoms: C_14  and  C_20
REMARK   15  A    between atoms: C_15  and  C_21
REMARK   16  A    between atoms: C_16  and  C_22
REMARK   17  A    between atoms: C_17  and  C_23
REMARK   18  A    between atoms: C_18  and  C_24
REMARK                            x       y       z     vdW  Elec       q    Type
REMARK                         _______ _______ _______ _____ _____    ______ ____
ROOT
ATOM      1  C   UNL     1     141.687 133.120 107.047  0.00  0.00    +0.000 C 
ATOM      2  C   UNL     1     141.410 133.596 107.422  0.00  0.00    +0.000 C 
ATOM      3  C   UNL     1     141.423 132.954 106.490  0.00  0.00    +0.000 C 
ATOM      4  C   UNL     1     140.882 133.885 107.224  0.00  0.00    +0.000 C 
ATOM      5  C   UNL     1     140.873 133.257 106.288  0.00  0.00    +0.000 C 
ATOM      6  C   UNL     1     140.609 133.714 106.649  0.00  0.00    +0.000 C 
ENDROOT
BRANCH   6   7
ATOM      7  O   UNL     1     140.061 134.004 106.431  0.00  0.00    +0.000 OA
BRANCH   7   8
ATOM      8  C   UNL     1     139.482 133.760 106.593  0.00  0.00    +0.000 C 
ATOM      9  O   UNL     1     139.448 133.219 106.952  0.00  0.00    +0.000 OA
BRANCH   8  10
ATOM     10  C   UNL     1     138.947 134.071 106.388  0.00  0.00    +0.000 A 
ATOM     11  N   UNL     1     138.441 134.914 105.813  0.00  0.00    +0.000 NA
ATOM     12  C   UNL     1     138.985 134.613 106.011  0.00  0.00    +0.000 A 
ATOM     13  C   UNL     1     138.360 133.838 106.561  0.00  0.00    +0.000 A 
ATOM     14  C   UNL     1     137.842 134.682 105.986  0.00  0.00    +0.000 A 
ATOM     15  C   UNL     1     137.803 134.139 106.363  0.00  0.00    +0.000 A 
ENDBRANCH   8  10
ENDBRANCH   7   8
ENDBRANCH   6   7
BRANCH   5  16
ATOM     16  O   UNL     1     140.602 133.087 105.717  0.00  0.00    +0.000 OA
BRANCH  16  17
ATOM     17  C   UNL     1     140.773 133.383 105.180  0.00  0.00    +0.000 C 
ATOM     18  O   UNL     1     141.218 133.873 105.191  0.00  0.00    +0.000 OA
BRANCH  17  19
ATOM     19  C   UNL     1     140.502 133.198 104.605  0.00  0.00    +0.000 A 
ATOM     20  N   UNL     1     139.777 132.545 104.026  0.00  0.00    +0.000 NA
ATOM     21  C   UNL     1     140.042 132.725 104.592  0.00  0.00    +0.000 A 
ATOM     22  C   UNL     1     140.691 133.484 104.058  0.00  0.00    +0.000 A 
ATOM     23  C   UNL     1     139.964 132.831 103.465  0.00  0.00    +0.000 A 
ATOM     24  C   UNL     1     140.424 133.305 103.478  0.00  0.00    +0.000 A 
ENDBRANCH  17  19
ENDBRANCH  16  17
ENDBRANCH   5  16
BRANCH   4  25
ATOM     25  O   UNL     1     140.593 134.359 107.581  0.00  0.00    +0.000 OA
BRANCH  25  26
ATOM     26  C   UNL     1     140.780 134.971 107.492  0.00  0.00    +0.000 C 
ATOM     27  O   UNL     1     141.241 135.122 107.051  0.00  0.00    +0.000 OA
BRANCH  26  28
ATOM     28  C   UNL     1     140.497 135.426 107.851  0.00  0.00    +0.000 A 
ATOM     29  N   UNL     1     139.763 135.700 108.667  0.00  0.00    +0.000 NA
ATOM     30  C   UNL     1     140.058 135.246 108.295  0.00  0.00    +0.000 A 
ATOM     31  C   UNL     1     140.636 136.057 107.783  0.00  0.00    +0.000 A 
ATOM     32  C   UNL     1     139.905 136.333 108.596  0.00  0.00    +0.000 A 
ATOM     33  C   UNL     1     140.351 136.507 108.144  0.00  0.00    +0.000 A 
ENDBRANCH  26  28
ENDBRANCH  25  26
ENDBRANCH   4  25
BRANCH   2  34
ATOM     34  O   UNL     1     141.677 133.765 107.986  0.00  0.00    +0.000 OA
BRANCH  34  35
ATOM     35  C   UNL     1     141.504 133.468 108.520  0.00  0.00    +0.000 C 
ATOM     36  O   UNL     1     141.055 132.990 108.512  0.00  0.00    +0.000 OA
BRANCH  35  37
ATOM     37  C   UNL     1     141.783 133.648 109.088  0.00  0.00    +0.000 A 
ATOM     38  N   UNL     1     141.889 133.530 110.206  0.00  0.00    +0.000 NA
ATOM     39  C   UNL     1     141.616 133.359 109.631  0.00  0.00    +0.000 A 
ATOM     40  C   UNL     1     142.228 134.116 109.101  0.00  0.00    +0.000 A 
ATOM     41  C   UNL     1     142.336 133.999 110.231  0.00  0.00    +0.000 A 
ATOM     42  C   UNL     1     142.509 134.297 109.672  0.00  0.00    +0.000 A 
ENDBRANCH  35  37
ENDBRANCH  34  35
ENDBRANCH   2  34
BRANCH   3  43
ATOM     43  O   UNL     1     141.714 132.486 106.144  0.00  0.00    +0.000 OA
BRANCH  43  44
ATOM     44  C   UNL     1     141.528 131.871 106.217  0.00  0.00    +0.000 C 
ATOM     45  O   UNL     1     141.062 131.715 106.655  0.00  0.00    +0.000 OA
BRANCH  44  46
ATOM     46  C   UNL     1     141.809 131.418 105.855  0.00  0.00    +0.000 A 
ATOM     47  N   UNL     1     142.531 131.096 105.048  0.00  0.00    +0.000 NA
ATOM     48  C   UNL     1     142.253 131.558 105.409  0.00  0.00    +0.000 A 
ATOM     49  C   UNL     1     141.640 130.800 105.939  0.00  0.00    +0.000 A 
ATOM     50  C   UNL     1     142.361 130.474 105.133  0.00  0.00    +0.000 A 
ATOM     51  C   UNL     1     141.914 130.326 105.579  0.00  0.00    +0.000 A 
ENDBRANCH  44  46
ENDBRANCH  43  44
ENDBRANCH   3  43
BRANCH   1  52
ATOM     52  O   UNL     1     142.235 132.815 107.245  0.00  0.00    +0.000 OA
BRANCH  52  53
ATOM     53  C   UNL     1     142.823 133.056 107.087  0.00  0.00    +0.000 C 
ATOM     54  O   UNL     1     142.873 133.589 106.719  0.00  0.00    +0.000 OA
BRANCH  53  55
ATOM     55  C   UNL     1     143.345 132.752 107.306  0.00  0.00    +0.000 A 
ATOM     56  N   UNL     1     144.491 132.686 107.369  0.00  0.00    +0.000 NA
ATOM     57  C   UNL     1     143.943 132.981 107.156  0.00  0.00    +0.000 A 
ATOM     58  C   UNL     1     143.305 132.208 107.683  0.00  0.00    +0.000 A 
ATOM     59  C   UNL     1     144.452 132.142 107.746  0.00  0.00    +0.000 A 
ATOM     60  C   UNL     1     143.853 131.905 107.901  0.00  0.00    +0.000 A 
ENDBRANCH  53  55
ENDBRANCH  52  53
ENDBRANCH   1  52
TORSDOF 18
ENDMDL
MODEL 10
REMARK VINA RESULT:      -8.8     26.201     28.069
REMARK  Name = 
REMARK  18 active torsions:
REMARK  status: ('A' for Active; 'I' for Inactive)
REMARK    1  A    between atoms: C_1  and  O_7
REMARK    2  A    between atoms: C_2  and  O_9
REMARK    3  A    between atoms: C_3  and  O_8
REMARK    4  A    between atoms: C_4  and  O_10
REMARK    5  A    between atoms: C_5  and  O_11
REMARK    6  A    between atoms: C_6  and  O_12
REMARK    7  A    between atoms: O_7  and  C_13
REMARK    8  A    between atoms: O_8  and  C_14
REMARK    9  A    between atoms: O_9  and  C_15
REMARK   10  A    between atoms: O_10  and  C_16
REMARK   11  A    between atoms: O_11  and  C_17
REMARK   12  A    between atoms: O_12  and  C_18
REMARK   13  A    between atoms: C_13  and  C_19
REMARK   14  A    between atoms: C_14  and  C_20
REMARK   15  A    between atoms: C_15  and  C_21
REMARK   16  A    between atoms: C_16  and  C_22
REMARK   17  A    between atoms: C_17  and  C_23
REMARK   18  A    between atoms: C_18  and  C_24
REMARK                            x       y       z     vdW  Elec       q    Type
REMARK                         _______ _______ _______ _____ _____    ______ ____
ROOT
ATOM      1  C   UNL     1     136.250 154.947  89.663  0.00  0.00    +0.000 C 
ATOM      2  C   UNL     1     136.254 155.159  90.294  0.00  0.00    +0.000 C 
ATOM      3  C   UNL     1     135.739 154.649  89.425  0.00  0.00    +0.000 C 
ATOM      4  C   UNL     1     135.745 155.064  90.661  0.00  0.00    +0.000 C 
ATOM      5  C   UNL     1     135.211 154.552  89.811  0.00  0.00    +0.000 C 
ATOM      6  C   UNL     1     135.217 154.756  90.416  0.00  0.00    +0.000 C 
ENDROOT
BRANCH   6   7
ATOM      7  O   UNL     1     134.683 154.650  90.784  0.00  0.00    +0.000 OA
BRANCH   7   8
ATOM      8  C   UNL     1     134.216 155.100  90.810  0.00  0.00    +0.000 C 
ATOM      9  O   UNL     1     134.277 155.649  90.467  0.00  0.00    +0.000 OA
BRANCH   8  10
ATOM     10  C   UNL     1     133.695 154.986  91.185  0.00  0.00    +0.000 A 
ATOM     11  N   UNL     1     133.115 154.329  91.913  0.00  0.00    +0.000 NA
ATOM     12  C   UNL     1     133.642 154.431  91.542  0.00  0.00    +0.000 A 
ATOM     13  C   UNL     1     133.215 155.431  91.205  0.00  0.00    +0.000 A 
ATOM     14  C   UNL     1     132.624 154.778  91.937  0.00  0.00    +0.000 A 
ATOM     15  C   UNL     1     132.677 155.333  91.580  0.00  0.00    +0.000 A 
ENDBRANCH   8  10
ENDBRANCH   7   8
ENDBRANCH   6   7
BRANCH   5  16
ATOM     16  O   UNL     1     134.687 154.246  89.568  0.00  0.00    +0.000 OA
BRANCH  16  17
ATOM     17  C   UNL     1     134.637 153.612  89.608  0.00  0.00    +0.000 C 
ATOM     18  O   UNL     1     135.111 153.254  89.900  0.00  0.00    +0.000 OA
BRANCH  17  19
ATOM     19  C   UNL     1     134.106 153.309  89.354  0.00  0.00    +0.000 A 
ATOM     20  N   UNL     1     133.111 153.362  88.811  0.00  0.00    +0.000 NA
ATOM     21  C   UNL     1     133.632 153.662  89.059  0.00  0.00    +0.000 A 
ATOM     22  C   UNL     1     134.055 152.667  89.397  0.00  0.00    +0.000 A 
ATOM     23  C   UNL     1     133.052 152.709  88.850  0.00  0.00    +0.000 A 
ATOM     24  C   UNL     1     133.526 152.357  89.145  0.00  0.00    +0.000 A 
ENDBRANCH  17  19
ENDBRANCH  16  17
ENDBRANCH   5  16
BRANCH   4  25
ATOM     25  O   UNL     1     135.730 155.266  91.289  0.00  0.00    +0.000 OA
BRANCH  25  26
ATOM     26  C   UNL     1     135.947 154.867  91.748  0.00  0.00    +0.000 C 
ATOM     27  O   UNL     1     136.171 154.270  91.598  0.00  0.00    +0.000 OA
BRANCH  26  28
ATOM     28  C   UNL     1     135.935 155.077  92.358  0.00  0.00    +0.000 A 
ATOM     29  N   UNL     1     136.134 154.882  93.454  0.00  0.00    +0.000 NA
ATOM     30  C   UNL     1     136.141 154.680  92.830  0.00  0.00    +0.000 A 
ATOM     31  C   UNL     1     135.725 155.671  92.516  0.00  0.00    +0.000 A 
ATOM     32  C   UNL     1     135.922 155.479  93.610  0.00  0.00    +0.000 A 
ATOM     33  C   UNL     1     135.715 155.875  93.126  0.00  0.00    +0.000 A 
ENDBRANCH  26  28
ENDBRANCH  25  26
ENDBRANCH   4  25
BRANCH   2  34
ATOM     34  O   UNL     1     136.772 155.461  90.535  0.00  0.00    +0.000 OA
BRANCH  34  35
ATOM     35  C   UNL     1     136.818 156.093  90.494  0.00  0.00    +0.000 C 
ATOM     36  O   UNL     1     136.342 156.451  90.217  0.00  0.00    +0.000 OA
BRANCH  35  37
ATOM     37  C   UNL     1     137.354 156.389  90.735  0.00  0.00    +0.000 A 
ATOM     38  N   UNL     1     138.341 156.332  91.279  0.00  0.00    +0.000 NA
ATOM     39  C   UNL     1     137.801 156.046  91.033  0.00  0.00    +0.000 A 
ATOM     40  C   UNL     1     137.431 157.028  90.672  0.00  0.00    +0.000 A 
ATOM     41  C   UNL     1     138.430 156.972  91.222  0.00  0.00    +0.000 A 
ATOM     42  C   UNL     1     137.970 157.326  90.915  0.00  0.00    +0.000 A 
ENDBRANCH  35  37
ENDBRANCH  34  35
ENDBRANCH   2  34
BRANCH   3  43
ATOM     43  O   UNL     1     135.762 154.452  88.806  0.00  0.00    +0.000 OA
BRANCH  43  44
ATOM     44  C   UNL     1     135.540 154.839  88.338  0.00  0.00    +0.000 C 
ATOM     45  O   UNL     1     135.318 155.442  88.484  0.00  0.00    +0.000 OA
BRANCH  44  46
ATOM     46  C   UNL     1     135.540 154.623  87.731  0.00  0.00    +0.000 A 
ATOM     47  N   UNL     1     135.731 153.818  86.963  0.00  0.00    +0.000 NA
ATOM     48  C   UNL     1     135.733 154.028  87.576  0.00  0.00    +0.000 A 
ATOM     49  C   UNL     1     135.340 155.015  87.258  0.00  0.00    +0.000 A 
ATOM     50  C   UNL     1     135.529 154.213  86.487  0.00  0.00    +0.000 A 
ATOM     51  C   UNL     1     135.334 154.813  86.635  0.00  0.00    +0.000 A 
ENDBRANCH  44  46
ENDBRANCH  43  44
ENDBRANCH   3  43
BRANCH   1  52
ATOM     52  O   UNL     1     136.774 155.042  89.275  0.00  0.00    +0.000 OA
BRANCH  52  53
ATOM     53  C   UNL     1     137.251 154.596  89.250  0.00  0.00    +0.000 C 
ATOM     54  O   UNL     1     137.206 154.043  89.589  0.00  0.00    +0.000 OA
BRANCH  53  55
ATOM     55  C   UNL     1     137.764 154.719  88.882  0.00  0.00    +0.000 A 
ATOM     56  N   UNL     1     138.295 155.415  88.137  0.00  0.00    +0.000 NA
ATOM     57  C   UNL     1     137.781 155.268  88.520  0.00  0.00    +0.000 A 
ATOM     58  C   UNL     1     138.285 154.310  88.852  0.00  0.00    +0.000 A 
ATOM     59  C   UNL     1     138.815 155.006  88.107  0.00  0.00    +0.000 A 
ATOM     60  C   UNL     1     138.806 154.451  88.468  0.00  0.00    +0.000 A 
ENDBRANCH  53  55
ENDBRANCH  52  53
ENDBRANCH   1  52
TORSDOF 18
ENDMDL
MODEL 11
REMARK VINA RESULT:      -8.8      1.499      2.187
REMARK  Name = 
REMARK  18 active torsions:
REMARK  status: ('A' for Active; 'I' for Inactive)
REMARK    1  A    between atoms: C_1  and  O_7
REMARK    2  A    between atoms: C_2  and  O_9
REMARK    3  A    between atoms: C_3  and  O_8
REMARK    4  A    between atoms: C_4  and  O_10
REMARK    5  A    between atoms: C_5  and  O_11
REMARK    6  A    between atoms: C_6  and  O_12
REMARK    7  A    between atoms: O_7  and  C_13
REMARK    8  A    between atoms: O_8  and  C_14
REMARK    9  A    between atoms: O_9  and  C_15
REMARK   10  A    between atoms: O_10  and  C_16
REMARK   11  A    between atoms: O_11  and  C_17
REMARK   12  A    between atoms: O_12  and  C_18
REMARK   13  A    between atoms: C_13  and  C_19
REMARK   14  A    between atoms: C_14  and  C_20
REMARK   15  A    between atoms: C_15  and  C_21
REMARK   16  A    between atoms: C_16  and  C_22
REMARK   17  A    between atoms: C_17  and  C_23
REMARK   18  A    between atoms: C_18  and  C_24
REMARK                            x       y       z     vdW  Elec       q    Type
REMARK                         _______ _______ _______ _____ _____    ______ ____
ROOT
ATOM      1  C   UNL     1     141.917 132.478 106.896  0.00  0.00    +0.000 C 
ATOM      2  C   UNL     1     142.266 131.968 107.145  0.00  0.00    +0.000 C 
ATOM      3  C   UNL     1     141.889 133.034 107.209  0.00  0.00    +0.000 C 
ATOM      4  C   UNL     1     142.572 132.036 107.697  0.00  0.00    +0.000 C 
ATOM      5  C   UNL     1     142.210 133.100 107.782  0.00  0.00    +0.000 C 
ATOM      6  C   UNL     1     142.544 132.610 108.019  0.00  0.00    +0.000 C 
ENDROOT
BRANCH   6   7
ATOM      7  O   UNL     1     142.856 132.695 108.592  0.00  0.00    +0.000 OA
BRANCH   7   8
ATOM      8  C   UNL     1     143.471 132.903 108.594  0.00  0.00    +0.000 C 
ATOM      9  O   UNL     1     143.769 133.035 108.031  0.00  0.00    +0.000 OA
BRANCH   8  10
ATOM     10  C   UNL     1     143.773 132.973 109.167  0.00  0.00    +0.000 A 
ATOM     11  N   UNL     1     143.782 132.905 110.304  0.00  0.00    +0.000 NA
ATOM     12  C   UNL     1     143.468 132.830 109.737  0.00  0.00    +0.000 A 
ATOM     13  C   UNL     1     144.391 133.188 109.176  0.00  0.00    +0.000 A 
ATOM     14  C   UNL     1     144.410 133.123 110.319  0.00  0.00    +0.000 A 
ATOM     15  C   UNL     1     144.716 133.266 109.749  0.00  0.00    +0.000 A 
ENDBRANCH   8  10
ENDBRANCH   7   8
ENDBRANCH   6   7
BRANCH   5  16
ATOM     16  O   UNL     1     142.181 133.670 108.103  0.00  0.00    +0.000 OA
BRANCH  16  17
ATOM     17  C   UNL     1     141.719 133.776 108.527  0.00  0.00    +0.000 C 
ATOM     18  O   UNL     1     141.265 133.313 108.656  0.00  0.00    +0.000 OA
BRANCH  17  19
ATOM     19  C   UNL     1     141.694 134.357 108.844  0.00  0.00    +0.000 A 
ATOM     20  N   UNL     1     142.120 135.391 109.034  0.00  0.00    +0.000 NA
ATOM     21  C   UNL     1     142.148 134.822 108.722  0.00  0.00    +0.000 A 
ATOM     22  C   UNL     1     141.222 134.467 109.271  0.00  0.00    +0.000 A 
ATOM     23  C   UNL     1     141.644 135.511 109.470  0.00  0.00    +0.000 A 
ATOM     24  C   UNL     1     141.190 135.046 109.591  0.00  0.00    +0.000 A 
ENDBRANCH  17  19
ENDBRANCH  16  17
ENDBRANCH   5  16
BRANCH   4  25
ATOM     25  O   UNL     1     142.923 131.543 107.959  0.00  0.00    +0.000 OA
BRANCH  25  26
ATOM     26  C   UNL     1     142.624 131.125 108.351  0.00  0.00    +0.000 C 
ATOM     27  O   UNL     1     141.987 131.191 108.491  0.00  0.00    +0.000 OA
BRANCH  26  28
ATOM     28  C   UNL     1     142.974 130.644 108.599  0.00  0.00    +0.000 A 
ATOM     29  N   UNL     1     143.036 129.738 109.274  0.00  0.00    +0.000 NA
ATOM     30  C   UNL     1     142.690 130.232 109.015  0.00  0.00    +0.000 A 
ATOM     31  C   UNL     1     143.599 130.556 108.448  0.00  0.00    +0.000 A 
ATOM     32  C   UNL     1     143.664 129.653 109.120  0.00  0.00    +0.000 A 
ATOM     33  C   UNL     1     143.944 130.074 108.698  0.00  0.00    +0.000 A 
ENDBRANCH  26  28
ENDBRANCH  25  26
ENDBRANCH   4  25
BRANCH   2  34
ATOM     34  O   UNL     1     142.294 131.406 106.829  0.00  0.00    +0.000 OA
BRANCH  34  35
ATOM     35  C   UNL     1     142.754 131.303 106.404  0.00  0.00    +0.000 C 
ATOM     36  O   UNL     1     143.210 131.760 106.280  0.00  0.00    +0.000 OA
BRANCH  35  37
ATOM     37  C   UNL     1     142.772 130.728 106.086  0.00  0.00    +0.000 A 
ATOM     38  N   UNL     1     142.337 129.704 105.892  0.00  0.00    +0.000 NA
ATOM     39  C   UNL     1     142.329 130.284 106.205  0.00  0.00    +0.000 A 
ATOM     40  C   UNL     1     143.235 130.607 105.652  0.00  0.00    +0.000 A 
ATOM     41  C   UNL     1     142.797 129.572 105.455  0.00  0.00    +0.000 A 
ATOM     42  C   UNL     1     143.252 130.028 105.332  0.00  0.00    +0.000 A 
ENDBRANCH  35  37
ENDBRANCH  34  35
ENDBRANCH   2  34
BRANCH   3  43
ATOM     43  O   UNL     1     141.541 133.515 106.943  0.00  0.00    +0.000 OA
BRANCH  43  44
ATOM     44  C   UNL     1     141.831 133.944 106.555  0.00  0.00    +0.000 C 
ATOM     45  O   UNL     1     142.469 133.877 106.405  0.00  0.00    +0.000 OA
BRANCH  44  46
ATOM     46  C   UNL     1     141.484 134.433 106.321  0.00  0.00    +0.000 A 
ATOM     47  N   UNL     1     140.516 135.007 106.220  0.00  0.00    +0.000 NA
ATOM     48  C   UNL     1     140.859 134.512 106.460  0.00  0.00    +0.000 A 
ATOM     49  C   UNL     1     141.770 134.864 105.933  0.00  0.00    +0.000 A 
ATOM     50  C   UNL     1     140.804 135.440 105.829  0.00  0.00    +0.000 A 
ATOM     51  C   UNL     1     141.433 135.368 105.686  0.00  0.00    +0.000 A 
ENDBRANCH  44  46
ENDBRANCH  43  44
ENDBRANCH   3  43
BRANCH   1  52
ATOM     52  O   UNL     1     141.596 132.416 106.325  0.00  0.00    +0.000 OA
BRANCH  52  53
ATOM     53  C   UNL     1     140.980 132.195 106.314  0.00  0.00    +0.000 C 
ATOM     54  O   UNL     1     140.674 132.043 106.867  0.00  0.00    +0.000 OA
BRANCH  53  55
ATOM     55  C   UNL     1     140.690 132.132 105.744  0.00  0.00    +0.000 A 
ATOM     56  N   UNL     1     139.748 131.856 105.145  0.00  0.00    +0.000 NA
ATOM     57  C   UNL     1     140.065 131.927 105.717  0.00  0.00    +0.000 A 
ATOM     58  C   UNL     1     140.998 132.268 105.173  0.00  0.00    +0.000 A 
ATOM     59  C   UNL     1     140.056 131.991 104.574  0.00  0.00    +0.000 A 
ATOM     60  C   UNL     1     140.685 132.198 104.593  0.00  0.00    +0.000 A 
ENDBRANCH  53  55
ENDBRANCH  52  53
ENDBRANCH   1  52
TORSDOF 18
ENDMDL
MODEL 12
REMARK VINA RESULT:      -8.7      0.366      3.686
REMARK  Name = 
REMARK  18 active torsions:
REMARK  status: ('A' for Active; 'I' for Inactive)
REMARK    1  A    between atoms: C_1  and  O_7
REMARK    2  A    between atoms: C_2  and  O_9
REMARK    3  A    between atoms: C_3  and  O_8
REMARK    4  A    between atoms: C_4  and  O_10
REMARK    5  A    between atoms: C_5  and  O_11
REMARK    6  A    between atoms: C_6  and  O_12
REMARK    7  A    between atoms: O_7  and  C_13
REMARK    8  A    between atoms: O_8  and  C_14
REMARK    9  A    between atoms: O_9  and  C_15
REMARK   10  A    between atoms: O_10  and  C_16
REMARK   11  A    between atoms: O_11  and  C_17
REMARK   12  A    between atoms: O_12  and  C_18
REMARK   13  A    between atoms: C_13  and  C_19
REMARK   14  A    between atoms: C_14  and  C_20
REMARK   15  A    between atoms: C_15  and  C_21
REMARK   16  A    between atoms: C_16  and  C_22
REMARK   17  A    between atoms: C_17  and  C_23
REMARK   18  A    between atoms: C_18  and  C_24
REMARK                            x       y       z     vdW  Elec       q    Type
REMARK                         _______ _______ _______ _____ _____    ______ ____
ROOT
ATOM      1  C   UNL     1     141.269 133.424 107.515  0.00  0.00    +0.000 C 
ATOM      2  C   UNL     1     141.569 132.964 107.137  0.00  0.00    +0.000 C 
ATOM      3  C   UNL     1     140.755 133.733 107.299  0.00  0.00    +0.000 C 
ATOM      4  C   UNL     1     141.342 132.834 106.560  0.00  0.00    +0.000 C 
ATOM      5  C   UNL     1     140.521 133.594 106.697  0.00  0.00    +0.000 C 
ATOM      6  C   UNL     1     140.810 133.153 106.337  0.00  0.00    +0.000 C 
ENDROOT
BRANCH   6   7
ATOM      7  O   UNL     1     140.563 133.028 105.740  0.00  0.00    +0.000 OA
BRANCH   7   8
ATOM      8  C   UNL     1     140.781 133.360 105.227  0.00  0.00    +0.000 C 
ATOM      9  O   UNL     1     141.230 133.823 105.308  0.00  0.00    +0.000 OA
BRANCH   8  10
ATOM     10  C   UNL     1     140.539 133.216 104.639  0.00  0.00    +0.000 A 
ATOM     11  N   UNL     1     139.837 132.619 103.968  0.00  0.00    +0.000 NA
ATOM     12  C   UNL     1     140.070 132.754 104.562  0.00  0.00    +0.000 A 
ATOM     13  C   UNL     1     140.767 133.535 104.115  0.00  0.00    +0.000 A 
ATOM     14  C   UNL     1     140.065 132.941 103.432  0.00  0.00    +0.000 A 
ATOM     15  C   UNL     1     140.534 133.403 103.508  0.00  0.00    +0.000 A 
ENDBRANCH   8  10
ENDBRANCH   7   8
ENDBRANCH   6   7
BRANCH   5  16
ATOM     16  O   UNL     1     139.994 133.911 106.475  0.00  0.00    +0.000 OA
BRANCH  16  17
ATOM     17  C   UNL     1     139.411 133.678 106.581  0.00  0.00    +0.000 C 
ATOM     18  O   UNL     1     139.329 133.105 106.903  0.00  0.00    +0.000 OA
BRANCH  17  19
ATOM     19  C   UNL     1     138.881 134.012 106.367  0.00  0.00    +0.000 A 
ATOM     20  N   UNL     1     137.755 134.109 106.270  0.00  0.00    +0.000 NA
ATOM     21  C   UNL     1     138.273 133.779 106.481  0.00  0.00    +0.000 A 
ATOM     22  C   UNL     1     138.963 134.567 106.047  0.00  0.00    +0.000 A 
ATOM     23  C   UNL     1     137.829 134.674 105.943  0.00  0.00    +0.000 A 
ATOM     24  C   UNL     1     138.437 134.907 105.829  0.00  0.00    +0.000 A 
ENDBRANCH  17  19
ENDBRANCH  16  17
ENDBRANCH   5  16
BRANCH   4  25
ATOM     25  O   UNL     1     141.625 132.382 106.172  0.00  0.00    +0.000 OA
BRANCH  25  26
ATOM     26  C   UNL     1     141.430 131.768 106.218  0.00  0.00    +0.000 C 
ATOM     27  O   UNL     1     140.948 131.597 106.629  0.00  0.00    +0.000 OA
BRANCH  26  28
ATOM     28  C   UNL     1     141.725 131.330 105.847  0.00  0.00    +0.000 A 
ATOM     29  N   UNL     1     142.505 131.092 105.064  0.00  0.00    +0.000 NA
ATOM     30  C   UNL     1     142.198 131.527 105.447  0.00  0.00    +0.000 A 
ATOM     31  C   UNL     1     141.565 130.701 105.860  0.00  0.00    +0.000 A 
ATOM     32  C   UNL     1     142.342 130.460 105.080  0.00  0.00    +0.000 A 
ATOM     33  C   UNL     1     141.863 130.269 105.488  0.00  0.00    +0.000 A 
ENDBRANCH  26  28
ENDBRANCH  25  26
ENDBRANCH   4  25
BRANCH   2  34
ATOM     34  O   UNL     1     142.090 132.651 107.356  0.00  0.00    +0.000 OA
BRANCH  34  35
ATOM     35  C   UNL     1     142.670 132.886 107.248  0.00  0.00    +0.000 C 
ATOM     36  O   UNL     1     142.753 133.444 106.911  0.00  0.00    +0.000 OA
BRANCH  35  37
ATOM     37  C   UNL     1     143.193 132.561 107.480  0.00  0.00    +0.000 A 
ATOM     38  N   UNL     1     143.630 131.685 108.041  0.00  0.00    +0.000 NA
ATOM     39  C   UNL     1     143.114 132.019 107.805  0.00  0.00    +0.000 A 
ATOM     40  C   UNL     1     143.790 132.788 107.380  0.00  0.00    +0.000 A 
ATOM     41  C   UNL     1     144.234 131.903 107.947  0.00  0.00    +0.000 A 
ATOM     42  C   UNL     1     144.316 132.461 107.613  0.00  0.00    +0.000 A 
ENDBRANCH  35  37
ENDBRANCH  34  35
ENDBRANCH   2  34
BRANCH   3  43
ATOM     43  O   UNL     1     140.481 134.177 107.688  0.00  0.00    +0.000 OA
BRANCH  43  44
ATOM     44  C   UNL     1     140.661 134.797 107.643  0.00  0.00    +0.000 C 
ATOM     45  O   UNL     1     141.138 134.974 107.224  0.00  0.00    +0.000 OA
BRANCH  44  46
ATOM     46  C   UNL     1     140.365 135.232 108.015  0.00  0.00    +0.000 A 
ATOM     47  N   UNL     1     139.602 135.518 108.796  0.00  0.00    +0.000 NA
ATOM     48  C   UNL     1     139.895 135.074 108.425  0.00  0.00    +0.000 A 
ATOM     49  C   UNL     1     140.546 135.852 107.977  0.00  0.00    +0.000 A 
ATOM     50  C   UNL     1     139.784 136.142 108.758  0.00  0.00    +0.000 A 
ATOM     51  C   UNL     1     140.257 136.308 108.347  0.00  0.00    +0.000 A 
ENDBRANCH  44  46
ENDBRANCH  43  44
ENDBRANCH   3  43
BRANCH   1  52
ATOM     52  O   UNL     1     141.499 133.566 108.115  0.00  0.00    +0.000 OA
BRANCH  52  53
ATOM     53  C   UNL     1     141.288 133.232 108.636  0.00  0.00    +0.000 C 
ATOM     54  O   UNL     1     140.838 132.767 108.572  0.00  0.00    +0.000 OA
BRANCH  53  55
ATOM     55  C   UNL     1     141.538 133.376 109.211  0.00  0.00    +0.000 A 
ATOM     56  N   UNL     1     141.579 133.179 110.343  0.00  0.00    +0.000 NA
ATOM     57  C   UNL     1     141.338 133.048 109.745  0.00  0.00    +0.000 A 
ATOM     58  C   UNL     1     141.995 133.850 109.289  0.00  0.00    +0.000 A 
ATOM     59  C   UNL     1     142.037 133.652 110.421  0.00  0.00    +0.000 A 
ATOM     60  C   UNL     1     142.243 133.987 109.888  0.00  0.00    +0.000 A 
ENDBRANCH  53  55
ENDBRANCH  52  53
ENDBRANCH   1  52
TORSDOF 18
ENDMDL
MODEL 13
REMARK VINA RESULT:      -8.6     24.949     26.830
REMARK  Name = 
REMARK  18 active torsions:
REMARK  status: ('A' for Active; 'I' for Inactive)
REMARK    1  A    between atoms: C_1  and  O_7
REMARK    2  A    between atoms: C_2  and  O_9
REMARK    3  A    between atoms: C_3  and  O_8
REMARK    4  A    between atoms: C_4  and  O_10
REMARK    5  A    between atoms: C_5  and  O_11
REMARK    6  A    between atoms: C_6  and  O_12
REMARK    7  A    between atoms: O_7  and  C_13
REMARK    8  A    between atoms: O_8  and  C_14
REMARK    9  A    between atoms: O_9  and  C_15
REMARK   10  A    between atoms: O_10  and  C_16
REMARK   11  A    between atoms: O_11  and  C_17
REMARK   12  A    between atoms: O_12  and  C_18
REMARK   13  A    between atoms: C_13  and  C_19
REMARK   14  A    between atoms: C_14  and  C_20
REMARK   15  A    between atoms: C_15  and  C_21
REMARK   16  A    between atoms: C_16  and  C_22
REMARK   17  A    between atoms: C_17  and  C_23
REMARK   18  A    between atoms: C_18  and  C_24
REMARK                            x       y       z     vdW  Elec       q    Type
REMARK                         _______ _______ _______ _____ _____    ______ ____
ROOT
ATOM      1  C   UNL     1     135.844 153.687  90.313  0.00  0.00    +0.000 C 
ATOM      2  C   UNL     1     136.074 153.451  90.892  0.00  0.00    +0.000 C 
ATOM      3  C   UNL     1     136.106 154.206  90.049  0.00  0.00    +0.000 C 
ATOM      4  C   UNL     1     136.557 153.743  91.182  0.00  0.00    +0.000 C 
ATOM      5  C   UNL     1     136.609 154.507  90.354  0.00  0.00    +0.000 C 
ATOM      6  C   UNL     1     136.828 154.279  90.909  0.00  0.00    +0.000 C 
ENDROOT
BRANCH   6   7
ATOM      7  O   UNL     1     137.328 154.592  91.198  0.00  0.00    +0.000 OA
BRANCH   7   8
ATOM      8  C   UNL     1     137.938 154.410  91.069  0.00  0.00    +0.000 C 
ATOM      9  O   UNL     1     138.049 153.925  90.650  0.00  0.00    +0.000 OA
BRANCH   8  10
ATOM     10  C   UNL     1     138.425 154.723  91.369  0.00  0.00    +0.000 A 
ATOM     11  N   UNL     1     138.804 155.513  92.097  0.00  0.00    +0.000 NA
ATOM     12  C   UNL     1     138.307 155.208  91.804  0.00  0.00    +0.000 A 
ATOM     13  C   UNL     1     139.042 154.552  91.235  0.00  0.00    +0.000 A 
ATOM     14  C   UNL     1     139.433 155.343  91.964  0.00  0.00    +0.000 A 
ATOM     15  C   UNL     1     139.552 154.858  91.529  0.00  0.00    +0.000 A 
ENDBRANCH   8  10
ENDBRANCH   7   8
ENDBRANCH   6   7
BRANCH   5  16
ATOM     16  O   UNL     1     136.878 155.038  90.084  0.00  0.00    +0.000 OA
BRANCH  16  17
ATOM     17  C   UNL     1     136.652 155.618  90.221  0.00  0.00    +0.000 C 
ATOM     18  O   UNL     1     136.150 155.693  90.646  0.00  0.00    +0.000 OA
BRANCH  17  19
ATOM     19  C   UNL     1     136.924 156.150  89.937  0.00  0.00    +0.000 A 
ATOM     20  N   UNL     1     137.702 156.606  89.248  0.00  0.00    +0.000 NA
ATOM     21  C   UNL     1     137.437 156.082  89.526  0.00  0.00    +0.000 A 
ATOM     22  C   UNL     1     136.683 156.736  90.063  0.00  0.00    +0.000 A 
ATOM     23  C   UNL     1     137.463 157.206  89.371  0.00  0.00    +0.000 A 
ATOM     24  C   UNL     1     136.950 157.274  89.782  0.00  0.00    +0.000 A 
ENDBRANCH  17  19
ENDBRANCH  16  17
ENDBRANCH   5  16
BRANCH   4  25
ATOM     25  O   UNL     1     136.798 153.524  91.755  0.00  0.00    +0.000 OA
BRANCH  25  26
ATOM     26  C   UNL     1     136.534 153.739  92.304  0.00  0.00    +0.000 C 
ATOM     27  O   UNL     1     136.039 154.168  92.295  0.00  0.00    +0.000 OA
BRANCH  26  28
ATOM     28  C   UNL     1     136.775 153.517  92.860  0.00  0.00    +0.000 A 
ATOM     29  N   UNL     1     136.782 153.539  93.991  0.00  0.00    +0.000 NA
ATOM     30  C   UNL     1     136.545 153.756  93.419  0.00  0.00    +0.000 A 
ATOM     31  C   UNL     1     137.239 153.063  92.879  0.00  0.00    +0.000 A 
ATOM     32  C   UNL     1     137.249 153.082  94.007  0.00  0.00    +0.000 A 
ATOM     33  C   UNL     1     137.476 152.845  93.436  0.00  0.00    +0.000 A 
ENDBRANCH  26  28
ENDBRANCH  25  26
ENDBRANCH   4  25
BRANCH   2  34
ATOM     34  O   UNL     1     135.809 152.926  91.159  0.00  0.00    +0.000 OA
BRANCH  34  35
ATOM     35  C   UNL     1     136.035 152.350  91.019  0.00  0.00    +0.000 C 
ATOM     36  O   UNL     1     136.540 152.274  90.607  0.00  0.00    +0.000 OA
BRANCH  35  37
ATOM     37  C   UNL     1     135.755 151.822  91.295  0.00  0.00    +0.000 A 
ATOM     38  N   UNL     1     134.969 151.372  91.969  0.00  0.00    +0.000 NA
ATOM     39  C   UNL     1     135.257 151.894  91.687  0.00  0.00    +0.000 A 
ATOM     40  C   UNL     1     135.981 151.230  91.172  0.00  0.00    +0.000 A 
ATOM     41  C   UNL     1     135.187 150.773  91.852  0.00  0.00    +0.000 A 
ATOM     42  C   UNL     1     135.699 150.699  91.450  0.00  0.00    +0.000 A 
ENDBRANCH  35  37
ENDBRANCH  34  35
ENDBRANCH   2  34
BRANCH   3  43
ATOM     43  O   UNL     1     135.863 154.415  89.483  0.00  0.00    +0.000 OA
BRANCH  43  44
ATOM     44  C   UNL     1     136.125 154.215  88.928  0.00  0.00    +0.000 C 
ATOM     45  O   UNL     1     136.618 153.778  88.932  0.00  0.00    +0.000 OA
BRANCH  44  46
ATOM     46  C   UNL     1     135.894 154.450  88.374  0.00  0.00    +0.000 A 
ATOM     47  N   UNL     1     135.194 155.121  87.794  0.00  0.00    +0.000 NA
ATOM     48  C   UNL     1     135.421 154.888  88.355  0.00  0.00    +0.000 A 
ATOM     49  C   UNL     1     136.143 154.241  87.815  0.00  0.00    +0.000 A 
ATOM     50  C   UNL     1     135.445 154.910  87.232  0.00  0.00    +0.000 A 
ATOM     51  C   UNL     1     135.921 154.469  87.243  0.00  0.00    +0.000 A 
ENDBRANCH  44  46
ENDBRANCH  43  44
ENDBRANCH   3  43
BRANCH   1  52
ATOM     52  O   UNL     1     135.344 153.390  90.006  0.00  0.00    +0.000 OA
BRANCH  52  53
ATOM     53  C   UNL     1     134.727 153.562  90.138  0.00  0.00    +0.000 C 
ATOM     54  O   UNL     1     134.599 154.033  90.566  0.00  0.00    +0.000 OA
BRANCH  53  55
ATOM     55  C   UNL     1     134.253 153.251  89.833  0.00  0.00    +0.000 A 
ATOM     56  N   UNL     1     133.127 153.117  89.645  0.00  0.00    +0.000 NA
ATOM     57  C   UNL     1     133.627 153.420  89.945  0.00  0.00    +0.000 A 
ATOM     58  C   UNL     1     134.371 152.760  89.404  0.00  0.00    +0.000 A 
ATOM     59  C   UNL     1     133.245 152.625  89.216  0.00  0.00    +0.000 A 
ATOM     60  C   UNL     1     133.872 152.450  89.098  0.00  0.00    +0.000 A 
ENDBRANCH  53  55
ENDBRANCH  52  53
ENDBRANCH   1  52
TORSDOF 18
ENDMDL
MODEL 14
REMARK VINA RESULT:      -8.6     29.421     31.101
REMARK  Name = 
REMARK  18 active torsions:
REMARK  status: ('A' for Active; 'I' for Inactive)
REMARK    1  A    between atoms: C_1  and  O_7
REMARK    2  A    between atoms: C_2  and  O_9
REMARK    3  A    between atoms: C_3  and  O_8
REMARK    4  A    between atoms: C_4  and  O_10
REMARK    5  A    between atoms: C_5  and  O_11
REMARK    6  A    between atoms: C_6  and  O_12
REMARK    7  A    between atoms: O_7  and  C_13
REMARK    8  A    between atoms: O_8  and  C_14
REMARK    9  A    between atoms: O_9  and  C_15
REMARK   10  A    between atoms: O_10  and  C_16
REMARK   11  A    between atoms: O_11  and  C_17
REMARK   12  A    between atoms: O_12  and  C_18
REMARK   13  A    between atoms: C_13  and  C_19
REMARK   14  A    between atoms: C_14  and  C_20
REMARK   15  A    between atoms: C_15  and  C_21
REMARK   16  A    between atoms: C_16  and  C_22
REMARK   17  A    between atoms: C_17  and  C_23
REMARK   18  A    between atoms: C_18  and  C_24
REMARK                            x       y       z     vdW  Elec       q    Type
REMARK                         _______ _______ _______ _____ _____    ______ ____
ROOT
ATOM      1  C   UNL     1     154.159 114.861 127.648  0.00  0.00    +0.000 C 
ATOM      2  C   UNL     1     153.683 114.405 127.742  0.00  0.00    +0.000 C 
ATOM      3  C   UNL     1     154.602 114.776 127.197  0.00  0.00    +0.000 C 
ATOM      4  C   UNL     1     153.670 113.883 127.381  0.00  0.00    +0.000 C 
ATOM      5  C   UNL     1     154.586 114.232 126.823  0.00  0.00    +0.000 C 
ATOM      6  C   UNL     1     154.128 113.795 126.915  0.00  0.00    +0.000 C 
ENDROOT
BRANCH   6   7
ATOM      7  O   UNL     1     154.128 113.260 126.534  0.00  0.00    +0.000 OA
BRANCH   7   8
ATOM      8  C   UNL     1     153.789 113.260 125.980  0.00  0.00    +0.000 C 
ATOM      9  O   UNL     1     153.462 113.793 125.802  0.00  0.00    +0.000 OA
BRANCH   8  10
ATOM     10  C   UNL     1     153.788 112.719 125.617  0.00  0.00    +0.000 A 
ATOM     11  N   UNL     1     154.106 111.641 125.433  0.00  0.00    +0.000 NA
ATOM     12  C   UNL     1     154.116 112.176 125.806  0.00  0.00    +0.000 A 
ATOM     13  C   UNL     1     153.455 112.716 125.053  0.00  0.00    +0.000 A 
ATOM     14  C   UNL     1     153.770 111.632 124.859  0.00  0.00    +0.000 A 
ATOM     15  C   UNL     1     153.442 112.175 124.669  0.00  0.00    +0.000 A 
ENDBRANCH   8  10
ENDBRANCH   7   8
ENDBRANCH   6   7
BRANCH   5  16
ATOM     16  O   UNL     1     155.040 114.144 126.361  0.00  0.00    +0.000 OA
BRANCH  16  17
ATOM     17  C   UNL     1     155.586 113.848 126.500  0.00  0.00    +0.000 C 
ATOM     18  O   UNL     1     155.705 113.626 127.112  0.00  0.00    +0.000 OA
BRANCH  17  19
ATOM     19  C   UNL     1     156.040 113.761 126.026  0.00  0.00    +0.000 A 
ATOM     20  N   UNL     1     156.383 113.910 124.955  0.00  0.00    +0.000 NA
ATOM     21  C   UNL     1     155.935 113.997 125.418  0.00  0.00    +0.000 A 
ATOM     22  C   UNL     1     156.586 113.443 126.162  0.00  0.00    +0.000 A 
ATOM     23  C   UNL     1     156.940 113.589 125.085  0.00  0.00    +0.000 A 
ATOM     24  C   UNL     1     157.045 113.352 125.693  0.00  0.00    +0.000 A 
ENDBRANCH  17  19
ENDBRANCH  16  17
ENDBRANCH   5  16
BRANCH   4  25
ATOM     25  O   UNL     1     153.207 113.420 127.460  0.00  0.00    +0.000 OA
BRANCH  25  26
ATOM     26  C   UNL     1     153.315 112.942 127.880  0.00  0.00    +0.000 C 
ATOM     27  O   UNL     1     153.877 112.910 128.216  0.00  0.00    +0.000 OA
BRANCH  26  28
ATOM     28  C   UNL     1     152.853 112.499 127.957  0.00  0.00    +0.000 A 
ATOM     29  N   UNL     1     152.491 111.551 128.457  0.00  0.00    +0.000 NA
ATOM     30  C   UNL     1     152.955 112.008 128.370  0.00  0.00    +0.000 A 
ATOM     31  C   UNL     1     152.289 112.528 127.635  0.00  0.00    +0.000 A 
ATOM     32  C   UNL     1     151.926 111.583 128.132  0.00  0.00    +0.000 A 
ATOM     33  C   UNL     1     151.831 112.084 127.715  0.00  0.00    +0.000 A 
ENDBRANCH  26  28
ENDBRANCH  25  26
ENDBRANCH   4  25
BRANCH   2  34
ATOM     34  O   UNL     1     153.234 114.491 128.199  0.00  0.00    +0.000 OA
BRANCH  34  35
ATOM     35  C   UNL     1     152.694 114.794 128.059  0.00  0.00    +0.000 C 
ATOM     36  O   UNL     1     152.581 115.027 127.456  0.00  0.00    +0.000 OA
BRANCH  35  37
ATOM     37  C   UNL     1     152.243 114.874 128.532  0.00  0.00    +0.000 A 
ATOM     38  N   UNL     1     151.905 114.718 129.597  0.00  0.00    +0.000 NA
ATOM     39  C   UNL     1     152.349 114.644 129.117  0.00  0.00    +0.000 A 
ATOM     40  C   UNL     1     151.690 115.184 128.407  0.00  0.00    +0.000 A 
ATOM     41  C   UNL     1     151.346 115.028 129.484  0.00  0.00    +0.000 A 
ATOM     42  C   UNL     1     151.236 115.265 128.882  0.00  0.00    +0.000 A 
ENDBRANCH  35  37
ENDBRANCH  34  35
ENDBRANCH   2  34
BRANCH   3  43
ATOM     43  O   UNL     1     155.056 115.237 127.125  0.00  0.00    +0.000 OA
BRANCH  43  44
ATOM     44  C   UNL     1     154.963 115.715 126.701  0.00  0.00    +0.000 C 
ATOM     45  O   UNL     1     154.400 115.752 126.361  0.00  0.00    +0.000 OA
BRANCH  44  46
ATOM     46  C   UNL     1     155.431 116.151 126.618  0.00  0.00    +0.000 A 
ATOM     47  N   UNL     1     156.444 116.581 126.869  0.00  0.00    +0.000 NA
ATOM     48  C   UNL     1     155.978 116.139 126.958  0.00  0.00    +0.000 A 
ATOM     49  C   UNL     1     155.351 116.617 126.178  0.00  0.00    +0.000 A 
ATOM     50  C   UNL     1     156.363 117.051 126.426  0.00  0.00    +0.000 A 
ATOM     51  C   UNL     1     155.815 117.068 126.080  0.00  0.00    +0.000 A 
ENDBRANCH  44  46
ENDBRANCH  43  44
ENDBRANCH   3  43
BRANCH   1  52
ATOM     52  O   UNL     1     154.179 115.405 128.017  0.00  0.00    +0.000 OA
BRANCH  52  53
ATOM     53  C   UNL     1     154.510 115.408 128.582  0.00  0.00    +0.000 C 
ATOM     54  O   UNL     1     154.839 114.882 128.776  0.00  0.00    +0.000 OA
BRANCH  53  55
ATOM     55  C   UNL     1     154.501 115.945 128.936  0.00  0.00    +0.000 A 
ATOM     56  N   UNL     1     154.833 116.503 129.885  0.00  0.00    +0.000 NA
ATOM     57  C   UNL     1     154.829 115.965 129.506  0.00  0.00    +0.000 A 
ATOM     58  C   UNL     1     154.169 116.487 128.748  0.00  0.00    +0.000 A 
ATOM     59  C   UNL     1     154.502 117.045 129.697  0.00  0.00    +0.000 A 
ATOM     60  C   UNL     1     154.169 117.032 129.124  0.00  0.00    +0.000 A 
ENDBRANCH  53  55
ENDBRANCH  52  53
ENDBRANCH   1  52
TORSDOF 18
ENDMDL
MODEL 15
REMARK VINA RESULT:      -8.5     29.235     31.068
REMARK  Name = 
REMARK  18 active torsions:
REMARK  status: ('A' for Active; 'I' for Inactive)
REMARK    1  A    between atoms: C_1  and  O_7
REMARK    2  A    between atoms: C_2  and  O_9
REMARK    3  A    between atoms: C_3  and  O_8
REMARK    4  A    between atoms: C_4  and  O_10
REMARK    5  A    between atoms: C_5  and  O_11
REMARK    6  A    between atoms: C_6  and  O_12
REMARK    7  A    between atoms: O_7  and  C_13
REMARK    8  A    between atoms: O_8  and  C_14
REMARK    9  A    between atoms: O_9  and  C_15
REMARK   10  A    between atoms: O_10  and  C_16
REMARK   11  A    between atoms: O_11  and  C_17
REMARK   12  A    between atoms: O_12  and  C_18
REMARK   13  A    between atoms: C_13  and  C_19
REMARK   14  A    between atoms: C_14  and  C_20
REMARK   15  A    between atoms: C_15  and  C_21
REMARK   16  A    between atoms: C_16  and  C_22
REMARK   17  A    between atoms: C_17  and  C_23
REMARK   18  A    between atoms: C_18  and  C_24
REMARK                            x       y       z     vdW  Elec       q    Type
REMARK                         _______ _______ _______ _____ _____    ______ ____
ROOT
ATOM      1  C   UNL     1     154.527 114.684 127.247  0.00  0.00    +0.000 C 
ATOM      2  C   UNL     1     154.554 114.119 126.894  0.00  0.00    +0.000 C 
ATOM      3  C   UNL     1     154.102 114.749 127.718  0.00  0.00    +0.000 C 
ATOM      4  C   UNL     1     154.155 113.645 127.027  0.00  0.00    +0.000 C 
ATOM      5  C   UNL     1     153.688 114.252 127.853  0.00  0.00    +0.000 C 
ATOM      6  C   UNL     1     153.716 113.712 127.513  0.00  0.00    +0.000 C 
ENDROOT
BRANCH   6   7
ATOM      7  O   UNL     1     153.295 113.229 127.663  0.00  0.00    +0.000 OA
BRANCH   7   8
ATOM      8  C   UNL     1     153.468 112.775 128.093  0.00  0.00    +0.000 C 
ATOM      9  O   UNL     1     154.050 112.808 128.381  0.00  0.00    +0.000 OA
BRANCH   8  10
ATOM     10  C   UNL     1     153.047 112.296 128.224  0.00  0.00    +0.000 A 
ATOM     11  N   UNL     1     152.046 111.775 128.063  0.00  0.00    +0.000 NA
ATOM     12  C   UNL     1     152.458 112.261 127.923  0.00  0.00    +0.000 A 
ATOM     13  C   UNL     1     153.212 111.839 128.664  0.00  0.00    +0.000 A 
ATOM     14  C   UNL     1     152.209 111.309 128.509  0.00  0.00    +0.000 A 
ATOM     15  C   UNL     1     152.798 111.343 128.811  0.00  0.00    +0.000 A 
ENDBRANCH   8  10
ENDBRANCH   7   8
ENDBRANCH   6   7
BRANCH   5  16
ATOM     16  O   UNL     1     153.252 114.319 128.336  0.00  0.00    +0.000 OA
BRANCH  16  17
ATOM     17  C   UNL     1     152.675 114.562 128.217  0.00  0.00    +0.000 C 
ATOM     18  O   UNL     1     152.508 114.750 127.605  0.00  0.00    +0.000 OA
BRANCH  17  19
ATOM     19  C   UNL     1     152.239 114.628 128.711  0.00  0.00    +0.000 A 
ATOM     20  N   UNL     1     151.971 114.505 129.806  0.00  0.00    +0.000 NA
ATOM     21  C   UNL     1     152.401 114.440 129.323  0.00  0.00    +0.000 A 
ATOM     22  C   UNL     1     151.656 114.876 128.590  0.00  0.00    +0.000 A 
ATOM     23  C   UNL     1     151.376 114.757 129.692  0.00  0.00    +0.000 A 
ATOM     24  C   UNL     1     151.214 114.945 129.079  0.00  0.00    +0.000 A 
ENDBRANCH  17  19
ENDBRANCH  16  17
ENDBRANCH   5  16
BRANCH   4  25
ATOM     25  O   UNL     1     154.167 113.079 126.688  0.00  0.00    +0.000 OA
BRANCH  25  26
ATOM     26  C   UNL     1     153.805 113.030 126.155  0.00  0.00    +0.000 C 
ATOM     27  O   UNL     1     153.427 113.527 125.957  0.00  0.00    +0.000 OA
BRANCH  26  28
ATOM     28  C   UNL     1     153.831 112.476 125.826  0.00  0.00    +0.000 A 
ATOM     29  N   UNL     1     153.481 111.852 124.949  0.00  0.00    +0.000 NA
ATOM     30  C   UNL     1     153.464 112.411 125.293  0.00  0.00    +0.000 A 
ATOM     31  C   UNL     1     154.210 111.981 126.008  0.00  0.00    +0.000 A 
ATOM     32  C   UNL     1     153.863 111.357 125.135  0.00  0.00    +0.000 A 
ATOM     33  C   UNL     1     154.231 111.430 125.676  0.00  0.00    +0.000 A 
ENDBRANCH  26  28
ENDBRANCH  25  26
ENDBRANCH   4  25
BRANCH   2  34
ATOM     34  O   UNL     1     154.985 114.053 126.417  0.00  0.00    +0.000 OA
BRANCH  34  35
ATOM     35  C   UNL     1     155.561 113.817 126.540  0.00  0.00    +0.000 C 
ATOM     36  O   UNL     1     155.732 113.640 127.149  0.00  0.00    +0.000 OA
BRANCH  35  37
ATOM     37  C   UNL     1     155.990 113.750 126.046  0.00  0.00    +0.000 A 
ATOM     38  N   UNL     1     156.253 113.875 124.955  0.00  0.00    +0.000 NA
ATOM     39  C   UNL     1     155.831 113.937 125.457  0.00  0.00    +0.000 A 
ATOM     40  C   UNL     1     156.575 113.497 126.152  0.00  0.00    +0.000 A 
ATOM     41  C   UNL     1     156.842 113.622 125.050  0.00  0.00    +0.000 A 
ATOM     42  C   UNL     1     157.007 113.430 125.655  0.00  0.00    +0.000 A 
ENDBRANCH  35  37
ENDBRANCH  34  35
ENDBRANCH   2  34
BRANCH   3  43
ATOM     43  O   UNL     1     154.096 115.310 128.047  0.00  0.00    +0.000 OA
BRANCH  43  44
ATOM     44  C   UNL     1     154.446 115.368 128.588  0.00  0.00    +0.000 C 
ATOM     45  O   UNL     1     154.831 114.872 128.788  0.00  0.00    +0.000 OA
BRANCH  44  46
ATOM     46  C   UNL     1     154.409 115.917 128.923  0.00  0.00    +0.000 A 
ATOM     47  N   UNL     1     154.006 116.960 129.081  0.00  0.00    +0.000 NA
ATOM     48  C   UNL     1     154.038 116.410 128.738  0.00  0.00    +0.000 A 
ATOM     49  C   UNL     1     154.756 115.978 129.465  0.00  0.00    +0.000 A 
ATOM     50  C   UNL     1     154.355 117.021 129.626  0.00  0.00    +0.000 A 
ATOM     51  C   UNL     1     154.731 116.528 129.819  0.00  0.00    +0.000 A 
ENDBRANCH  44  46
ENDBRANCH  43  44
ENDBRANCH   3  43
BRANCH   1  52
ATOM     52  O   UNL     1     154.937 115.181 127.115  0.00  0.00    +0.000 OA
BRANCH  52  53
ATOM     53  C   UNL     1     154.773 115.637 126.677  0.00  0.00    +0.000 C 
ATOM     54  O   UNL     1     154.194 115.619 126.382  0.00  0.00    +0.000 OA
BRANCH  53  55
ATOM     55  C   UNL     1     155.198 116.102 126.547  0.00  0.00    +0.000 A 
ATOM     56  N   UNL     1     155.486 117.029 125.931  0.00  0.00    +0.000 NA
ATOM     57  C   UNL     1     155.065 116.545 126.080  0.00  0.00    +0.000 A 
ATOM     58  C   UNL     1     155.775 116.153 126.871  0.00  0.00    +0.000 A 
ATOM     59  C   UNL     1     156.062 117.080 126.254  0.00  0.00    +0.000 A 
ATOM     60  C   UNL     1     156.204 116.637 126.726  0.00  0.00    +0.000 A 
ENDBRANCH  53  55
ENDBRANCH  52  53
ENDBRANCH   1  52
TORSDOF 18
ENDMDL
MODEL 16
REMARK VINA RESULT:      -8.5      1.800      3.002
REMARK  Name = 
REMARK  18 active torsions:
REMARK  status: ('A' for Active; 'I' for Inactive)
REMARK    1  A    between atoms: C_1  and  O_7
REMARK    2  A    between atoms: C_2  and  O_9
REMARK    3  A    between atoms: C_3  and  O_8
REMARK    4  A    between atoms: C_4  and  O_10
REMARK    5  A    between atoms: C_5  and  O_11
REMARK    6  A    between atoms: C_6  and  O_12
REMARK    7  A    between atoms: O_7  and  C_13
REMARK    8  A    between atoms: O_8  and  C_14
REMARK    9  A    between atoms: O_9  and  C_15
REMARK   10  A    between atoms: O_10  and  C_16
REMARK   11  A    between atoms: O_11  and  C_17
REMARK   12  A    between atoms: O_12  and  C_18
REMARK   13  A    between atoms: C_13  and  C_19
REMARK   14  A    between atoms: C_14  and  C_20
REMARK   15  A    between atoms: C_15  and  C_21
REMARK   16  A    between atoms: C_16  and  C_22
REMARK   17  A    between atoms: C_17  and  C_23
REMARK   18  A    between atoms: C_18  and  C_24
REMARK                            x       y       z     vdW  Elec       q    Type
REMARK                         _______ _______ _______ _____ _____    ______ ____
ROOT
ATOM      1  C   UNL     1     142.671 132.025 106.924  0.00  0.00    +0.000 C 
ATOM      2  C   UNL     1     143.024 132.085 107.486  0.00  0.00    +0.000 C 
ATOM      3  C   UNL     1     142.467 132.544 106.613  0.00  0.00    +0.000 C 
ATOM      4  C   UNL     1     143.158 132.662 107.713  0.00  0.00    +0.000 C 
ATOM      5  C   UNL     1     142.609 133.143 106.854  0.00  0.00    +0.000 C 
ATOM      6  C   UNL     1     142.947 133.198 107.393  0.00  0.00    +0.000 C 
ENDROOT
BRANCH   6   7
ATOM      7  O   UNL     1     143.078 133.802 107.616  0.00  0.00    +0.000 OA
BRANCH   7   8
ATOM      8  C   UNL     1     142.670 134.085 108.035  0.00  0.00    +0.000 C 
ATOM      9  O   UNL     1     142.132 133.772 108.222  0.00  0.00    +0.000 OA
BRANCH   8  10
ATOM     10  C   UNL     1     142.817 134.680 108.257  0.00  0.00    +0.000 A 
ATOM     11  N   UNL     1     143.505 135.587 108.300  0.00  0.00    +0.000 NA
ATOM     12  C   UNL     1     143.370 134.991 108.070  0.00  0.00    +0.000 A 
ATOM     13  C   UNL     1     142.406 134.973 108.674  0.00  0.00    +0.000 A 
ATOM     14  C   UNL     1     143.090 135.889 108.724  0.00  0.00    +0.000 A 
ATOM     15  C   UNL     1     142.537 135.578 108.911  0.00  0.00    +0.000 A 
ENDBRANCH   8  10
ENDBRANCH   7   8
ENDBRANCH   6   7
BRANCH   5  16
ATOM     16  O   UNL     1     142.399 133.675 106.536  0.00  0.00    +0.000 OA
BRANCH  16  17
ATOM     17  C   UNL     1     142.761 133.941 106.084  0.00  0.00    +0.000 C 
ATOM     18  O   UNL     1     143.353 133.689 105.932  0.00  0.00    +0.000 OA
BRANCH  17  19
ATOM     19  C   UNL     1     142.540 134.477 105.764  0.00  0.00    +0.000 A 
ATOM     20  N   UNL     1     141.734 135.257 105.593  0.00  0.00    +0.000 NA
ATOM     21  C   UNL     1     141.948 134.731 105.909  0.00  0.00    +0.000 A 
ATOM     22  C   UNL     1     142.909 134.749 105.309  0.00  0.00    +0.000 A 
ATOM     23  C   UNL     1     142.103 135.540 105.129  0.00  0.00    +0.000 A 
ATOM     24  C   UNL     1     142.695 135.286 104.984  0.00  0.00    +0.000 A 
ENDBRANCH  17  19
ENDBRANCH  16  17
ENDBRANCH   5  16
BRANCH   4  25
ATOM     25  O   UNL     1     143.506 132.742 108.268  0.00  0.00    +0.000 OA
BRANCH  25  26
ATOM     26  C   UNL     1     144.150 132.775 108.227  0.00  0.00    +0.000 C 
ATOM     27  O   UNL     1     144.453 132.738 107.647  0.00  0.00    +0.000 OA
BRANCH  26  28
ATOM     28  C   UNL     1     144.482 132.846 108.775  0.00  0.00    +0.000 A 
ATOM     29  N   UNL     1     145.478 132.971 109.296  0.00  0.00    +0.000 NA
ATOM     30  C   UNL     1     145.129 132.898 108.745  0.00  0.00    +0.000 A 
ATOM     31  C   UNL     1     144.191 132.868 109.356  0.00  0.00    +0.000 A 
ATOM     32  C   UNL     1     145.183 132.992 109.878  0.00  0.00    +0.000 A 
ATOM     33  C   UNL     1     144.527 132.939 109.900  0.00  0.00    +0.000 A 
ENDBRANCH  26  28
ENDBRANCH  25  26
ENDBRANCH   4  25
BRANCH   2  34
ATOM     34  O   UNL     1     143.231 131.560 107.800  0.00  0.00    +0.000 OA
BRANCH  34  35
ATOM     35  C   UNL     1     142.866 131.293 108.246  0.00  0.00    +0.000 C 
ATOM     36  O   UNL     1     142.278 131.543 108.398  0.00  0.00    +0.000 OA
BRANCH  35  37
ATOM     37  C   UNL     1     143.086 130.758 108.559  0.00  0.00    +0.000 A 
ATOM     38  N   UNL     1     142.943 129.950 109.334  0.00  0.00    +0.000 NA
ATOM     39  C   UNL     1     142.733 130.487 109.014  0.00  0.00    +0.000 A 
ATOM     40  C   UNL     1     143.661 130.503 108.407  0.00  0.00    +0.000 A 
ATOM     41  C   UNL     1     143.518 129.686 109.191  0.00  0.00    +0.000 A 
ATOM     42  C   UNL     1     143.882 129.965 108.722  0.00  0.00    +0.000 A 
ENDBRANCH  35  37
ENDBRANCH  34  35
ENDBRANCH   2  34
BRANCH   3  43
ATOM     43  O   UNL     1     142.125 132.457 106.067  0.00  0.00    +0.000 OA
BRANCH  43  44
ATOM     44  C   UNL     1     141.479 132.431 106.094  0.00  0.00    +0.000 C 
ATOM     45  O   UNL     1     141.170 132.466 106.675  0.00  0.00    +0.000 OA
BRANCH  44  46
ATOM     46  C   UNL     1     141.149 132.371 105.545  0.00  0.00    +0.000 A 
ATOM     47  N   UNL     1     141.097 132.281 104.420  0.00  0.00    +0.000 NA
ATOM     48  C   UNL     1     141.437 132.342 104.969  0.00  0.00    +0.000 A 
ATOM     49  C   UNL     1     140.503 132.338 105.568  0.00  0.00    +0.000 A 
ATOM     50  C   UNL     1     140.448 132.248 104.444  0.00  0.00    +0.000 A 
ATOM     51  C   UNL     1     140.151 132.277 105.020  0.00  0.00    +0.000 A 
ENDBRANCH  44  46
ENDBRANCH  43  44
ENDBRANCH   3  43
BRANCH   1  52
ATOM     52  O   UNL     1     142.528 131.430 106.681  0.00  0.00    +0.000 OA
BRANCH  52  53
ATOM     53  C   UNL     1     142.937 131.137 106.262  0.00  0.00    +0.000 C 
ATOM     54  O   UNL     1     143.481 131.436 106.068  0.00  0.00    +0.000 OA
BRANCH  53  55
ATOM     55  C   UNL     1     142.786 130.549 106.051  0.00  0.00    +0.000 A 
ATOM     56  N   UNL     1     143.054 129.638 105.404  0.00  0.00    +0.000 NA
ATOM     57  C   UNL     1     143.189 130.240 105.633  0.00  0.00    +0.000 A 
ATOM     58  C   UNL     1     142.232 130.237 106.239  0.00  0.00    +0.000 A 
ATOM     59  C   UNL     1     142.500 129.326 105.592  0.00  0.00    +0.000 A 
ATOM     60  C   UNL     1     142.090 129.631 106.013  0.00  0.00    +0.000 A 
ENDBRANCH  53  55
ENDBRANCH  52  53
ENDBRANCH   1  52
TORSDOF 18
ENDMDL
MODEL 17
REMARK VINA RESULT:      -8.5     29.545     31.037
REMARK  Name = 
REMARK  18 active torsions:
REMARK  status: ('A' for Active; 'I' for Inactive)
REMARK    1  A    between atoms: C_1  and  O_7
REMARK    2  A    between atoms: C_2  and  O_9
REMARK    3  A    between atoms: C_3  and  O_8
REMARK    4  A    between atoms: C_4  and  O_10
REMARK    5  A    between atoms: C_5  and  O_11
REMARK    6  A    between atoms: C_6  and  O_12
REMARK    7  A    between atoms: O_7  and  C_13
REMARK    8  A    between atoms: O_8  and  C_14
REMARK    9  A    between atoms: O_9  and  C_15
REMARK   10  A    between atoms: O_10  and  C_16
REMARK   11  A    between atoms: O_11  and  C_17
REMARK   12  A    between atoms: O_12  and  C_18
REMARK   13  A    between atoms: C_13  and  C_19
REMARK   14  A    between atoms: C_14  and  C_20
REMARK   15  A    between atoms: C_15  and  C_21
REMARK   16  A    between atoms: C_16  and  C_22
REMARK   17  A    between atoms: C_17  and  C_23
REMARK   18  A    between atoms: C_18  and  C_24
REMARK                            x       y       z     vdW  Elec       q    Type
REMARK                         _______ _______ _______ _____ _____    ______ ____
ROOT
ATOM      1  C   UNL     1     154.157 114.804 127.661  0.00  0.00    +0.000 C 
ATOM      2  C   UNL     1     154.629 114.733 127.196  0.00  0.00    +0.000 C 
ATOM      3  C   UNL     1     153.698 114.365 127.724  0.00  0.00    +0.000 C 
ATOM      4  C   UNL     1     154.622 114.227 126.815  0.00  0.00    +0.000 C 
ATOM      5  C   UNL     1     153.695 113.839 127.325  0.00  0.00    +0.000 C 
ATOM      6  C   UNL     1     154.149 113.773 126.881  0.00  0.00    +0.000 C 
ENDROOT
BRANCH   6   7
ATOM      7  O   UNL     1     154.128 113.243 126.493  0.00  0.00    +0.000 OA
BRANCH   7   8
ATOM      8  C   UNL     1     153.807 113.269 125.929  0.00  0.00    +0.000 C 
ATOM      9  O   UNL     1     153.499 113.815 125.758  0.00  0.00    +0.000 OA
BRANCH   8  10
ATOM     10  C   UNL     1     153.804 112.740 125.549  0.00  0.00    +0.000 A 
ATOM     11  N   UNL     1     154.115 111.665 125.333  0.00  0.00    +0.000 NA
ATOM     12  C   UNL     1     154.127 112.188 125.722  0.00  0.00    +0.000 A 
ATOM     13  C   UNL     1     153.473 112.757 124.985  0.00  0.00    +0.000 A 
ATOM     14  C   UNL     1     153.781 111.677 124.758  0.00  0.00    +0.000 A 
ATOM     15  C   UNL     1     153.457 112.228 124.584  0.00  0.00    +0.000 A 
ENDBRANCH   8  10
ENDBRANCH   7   8
ENDBRANCH   6   7
BRANCH   5  16
ATOM     16  O   UNL     1     153.225 113.389 127.390  0.00  0.00    +0.000 OA
BRANCH  16  17
ATOM     17  C   UNL     1     153.305 112.895 127.783  0.00  0.00    +0.000 C 
ATOM     18  O   UNL     1     153.867 112.824 128.127  0.00  0.00    +0.000 OA
BRANCH  17  19
ATOM     19  C   UNL     1     152.822 112.447 127.848  0.00  0.00    +0.000 A 
ATOM     20  N   UNL     1     151.790 112.069 127.570  0.00  0.00    +0.000 NA
ATOM     21  C   UNL     1     152.262 112.510 127.504  0.00  0.00    +0.000 A 
ATOM     22  C   UNL     1     152.903 111.948 128.250  0.00  0.00    +0.000 A 
ATOM     23  C   UNL     1     151.864 111.558 127.976  0.00  0.00    +0.000 A 
ATOM     24  C   UNL     1     152.424 111.495 128.321  0.00  0.00    +0.000 A 
ENDBRANCH  17  19
ENDBRANCH  16  17
ENDBRANCH   5  16
BRANCH   4  25
ATOM     25  O   UNL     1     155.081 114.139 126.350  0.00  0.00    +0.000 OA
BRANCH  25  26
ATOM     26  C   UNL     1     155.625 113.828 126.506  0.00  0.00    +0.000 C 
ATOM     27  O   UNL     1     155.721 113.600 127.113  0.00  0.00    +0.000 OA
BRANCH  26  28
ATOM     28  C   UNL     1     156.069 113.749 126.044  0.00  0.00    +0.000 A 
ATOM     29  N   UNL     1     156.409 113.942 124.983  0.00  0.00    +0.000 NA
ATOM     30  C   UNL     1     155.965 114.015 125.461  0.00  0.00    +0.000 A 
ATOM     31  C   UNL     1     156.615 113.412 126.143  0.00  0.00    +0.000 A 
ATOM     32  C   UNL     1     156.957 113.603 125.086  0.00  0.00    +0.000 A 
ATOM     33  C   UNL     1     157.055 113.336 125.680  0.00  0.00    +0.000 A 
ENDBRANCH  26  28
ENDBRANCH  25  26
ENDBRANCH   4  25
BRANCH   2  34
ATOM     34  O   UNL     1     155.094 115.178 127.132  0.00  0.00    +0.000 OA
BRANCH  34  35
ATOM     35  C   UNL     1     155.009 115.671 126.742  0.00  0.00    +0.000 C 
ATOM     36  O   UNL     1     154.454 115.741 126.398  0.00  0.00    +0.000 OA
BRANCH  35  37
ATOM     37  C   UNL     1     155.488 116.119 126.686  0.00  0.00    +0.000 A 
ATOM     38  N   UNL     1     156.500 116.512 126.995  0.00  0.00    +0.000 NA
ATOM     39  C   UNL     1     156.014 116.070 127.043  0.00  0.00    +0.000 A 
ATOM     40  C   UNL     1     155.431 116.609 126.270  0.00  0.00    +0.000 A 
ATOM     41  C   UNL     1     156.454 117.009 126.581  0.00  0.00    +0.000 A 
ATOM     42  C   UNL     1     155.913 117.059 126.213  0.00  0.00    +0.000 A 
ENDBRANCH  35  37
ENDBRANCH  34  35
ENDBRANCH   2  34
BRANCH   3  43
ATOM     43  O   UNL     1     153.250 114.459 128.186  0.00  0.00    +0.000 OA
BRANCH  43  44
ATOM     44  C   UNL     1     152.699 114.764 128.040  0.00  0.00    +0.000 C 
ATOM     45  O   UNL     1     152.603 115.005 127.434  0.00  0.00    +0.000 OA
BRANCH  44  46
ATOM     46  C   UNL     1     152.249 114.827 128.497  0.00  0.00    +0.000 A 
ATOM     47  N   UNL     1     151.864 114.648 129.544  0.00  0.00    +0.000 NA
ATOM     48  C   UNL     1     152.321 114.580 129.088  0.00  0.00    +0.000 A 
ATOM     49  C   UNL     1     151.705 115.149 128.361  0.00  0.00    +0.000 A 
ATOM     50  C   UNL     1     151.316 114.971 129.406  0.00  0.00    +0.000 A 
ATOM     51  C   UNL     1     151.237 115.222 128.813  0.00  0.00    +0.000 A 
ENDBRANCH  44  46
ENDBRANCH  43  44
ENDBRANCH   3  43
BRANCH   1  52
ATOM     52  O   UNL     1     154.157 115.327 128.061  0.00  0.00    +0.000 OA
BRANCH  52  53
ATOM     53  C   UNL     1     154.486 115.311 128.626  0.00  0.00    +0.000 C 
ATOM     54  O   UNL     1     154.808 114.776 128.806  0.00  0.00    +0.000 OA
BRANCH  53  55
ATOM     55  C   UNL     1     154.483 115.837 128.995  0.00  0.00    +0.000 A 
ATOM     56  N   UNL     1     154.813 116.362 129.963  0.00  0.00    +0.000 NA
ATOM     57  C   UNL     1     154.803 115.835 129.569  0.00  0.00    +0.000 A 
ATOM     58  C   UNL     1     154.164 116.391 128.818  0.00  0.00    +0.000 A 
ATOM     59  C   UNL     1     154.494 116.916 129.786  0.00  0.00    +0.000 A 
ATOM     60  C   UNL     1     154.169 116.926 129.209  0.00  0.00    +0.000 A 
ENDBRANCH  53  55
ENDBRANCH  52  53
ENDBRANCH   1  52
TORSDOF 18
ENDMDL
MODEL 18
REMARK VINA RESULT:      -8.5     29.477     30.964
REMARK  Name = 
REMARK  18 active torsions:
REMARK  status: ('A' for Active; 'I' for Inactive)
REMARK    1  A    between atoms: C_1  and  O_7
REMARK    2  A    between atoms: C_2  and  O_9
REMARK    3  A    between atoms: C_3  and  O_8
REMARK    4  A    between atoms: C_4  and  O_10
REMARK    5  A    between atoms: C_5  and  O_11
REMARK    6  A    between atoms: C_6  and  O_12
REMARK    7  A    between atoms: O_7  and  C_13
REMARK    8  A    between atoms: O_8  and  C_14
REMARK    9  A    between atoms: O_9  and  C_15
REMARK   10  A    between atoms: O_10  and  C_16
REMARK   11  A    between atoms: O_11  and  C_17
REMARK   12  A    between atoms: O_12  and  C_18
REMARK   13  A    between atoms: C_13  and  C_19
REMARK   14  A    between atoms: C_14  and  C_20
REMARK   15  A    between atoms: C_15  and  C_21
REMARK   16  A    between atoms: C_16  and  C_22
REMARK   17  A    between atoms: C_17  and  C_23
REMARK   18  A    between atoms: C_18  and  C_24
REMARK                            x       y       z     vdW  Elec       q    Type
REMARK                         _______ _______ _______ _____ _____    ______ ____
ROOT
ATOM      1  C   UNL     1     154.648 114.195 126.818  0.00  0.00    +0.000 C 
ATOM      2  C   UNL     1     154.179 113.727 126.893  0.00  0.00    +0.000 C 
ATOM      3  C   UNL     1     154.644 114.716 127.185  0.00  0.00    +0.000 C 
ATOM      4  C   UNL     1     153.727 113.801 127.332  0.00  0.00    +0.000 C 
ATOM      5  C   UNL     1     154.172 114.790 127.641  0.00  0.00    +0.000 C 
ATOM      6  C   UNL     1     153.724 114.340 127.711  0.00  0.00    +0.000 C 
ENDROOT
BRANCH   6   7
ATOM      7  O   UNL     1     153.262 114.431 128.170  0.00  0.00    +0.000 OA
BRANCH   7   8
ATOM      8  C   UNL     1     152.708 114.730 128.013  0.00  0.00    +0.000 C 
ATOM      9  O   UNL     1     152.618 114.948 127.407  0.00  0.00    +0.000 OA
BRANCH   8  10
ATOM     10  C   UNL     1     152.253 114.803 128.475  0.00  0.00    +0.000 A 
ATOM     11  N   UNL     1     151.876 114.642 129.538  0.00  0.00    +0.000 NA
ATOM     12  C   UNL     1     152.340 114.562 129.086  0.00  0.00    +0.000 A 
ATOM     13  C   UNL     1     151.700 115.121 128.328  0.00  0.00    +0.000 A 
ATOM     14  C   UNL     1     151.313 114.965 129.394  0.00  0.00    +0.000 A 
ATOM     15  C   UNL     1     151.225 115.206 128.783  0.00  0.00    +0.000 A 
ENDBRANCH   8  10
ENDBRANCH   7   8
ENDBRANCH   6   7
BRANCH   5  16
ATOM     16  O   UNL     1     154.169 115.324 128.018  0.00  0.00    +0.000 OA
BRANCH  16  17
ATOM     17  C   UNL     1     154.485 115.330 128.571  0.00  0.00    +0.000 C 
ATOM     18  O   UNL     1     154.819 114.796 128.774  0.00  0.00    +0.000 OA
BRANCH  17  19
ATOM     19  C   UNL     1     154.480 115.876 128.945  0.00  0.00    +0.000 A 
ATOM     20  N   UNL     1     154.143 116.945 129.117  0.00  0.00    +0.000 NA
ATOM     21  C   UNL     1     154.147 116.411 128.747  0.00  0.00    +0.000 A 
ATOM     22  C   UNL     1     154.802 115.881 129.505  0.00  0.00    +0.000 A 
ATOM     23  C   UNL     1     154.468 116.959 129.687  0.00  0.00    +0.000 A 
ATOM     24  C   UNL     1     154.801 116.424 129.885  0.00  0.00    +0.000 A 
ENDBRANCH  17  19
ENDBRANCH  16  17
ENDBRANCH   5  16
BRANCH   4  25
ATOM     25  O   UNL     1     153.255 113.349 127.420  0.00  0.00    +0.000 OA
BRANCH  25  26
ATOM     26  C   UNL     1     153.364 112.865 127.834  0.00  0.00    +0.000 C 
ATOM     27  O   UNL     1     153.928 112.825 128.165  0.00  0.00    +0.000 OA
BRANCH  26  28
ATOM     28  C   UNL     1     152.899 112.424 127.908  0.00  0.00    +0.000 A 
ATOM     29  N   UNL     1     152.526 111.485 128.418  0.00  0.00    +0.000 NA
ATOM     30  C   UNL     1     152.992 111.940 128.333  0.00  0.00    +0.000 A 
ATOM     31  C   UNL     1     152.343 112.447 127.575  0.00  0.00    +0.000 A 
ATOM     32  C   UNL     1     151.968 111.512 128.080  0.00  0.00    +0.000 A 
ATOM     33  C   UNL     1     151.882 112.005 127.653  0.00  0.00    +0.000 A 
ENDBRANCH  26  28
ENDBRANCH  25  26
ENDBRANCH   4  25
BRANCH   2  34
ATOM     34  O   UNL     1     154.182 113.199 126.521  0.00  0.00    +0.000 OA
BRANCH  34  35
ATOM     35  C   UNL     1     153.866 113.197 125.970  0.00  0.00    +0.000 C 
ATOM     36  O   UNL     1     153.530 113.724 125.769  0.00  0.00    +0.000 OA
BRANCH  35  37
ATOM     37  C   UNL     1     153.878 112.654 125.598  0.00  0.00    +0.000 A 
ATOM     38  N   UNL     1     154.219 111.591 125.430  0.00  0.00    +0.000 NA
ATOM     39  C   UNL     1     154.200 112.140 125.795  0.00  0.00    +0.000 A 
ATOM     40  C   UNL     1     153.565 112.638 125.033  0.00  0.00    +0.000 A 
ATOM     41  C   UNL     1     153.909 111.563 124.861  0.00  0.00    +0.000 A 
ATOM     42  C   UNL     1     153.578 112.092 124.659  0.00  0.00    +0.000 A 
ENDBRANCH  35  37
ENDBRANCH  34  35
ENDBRANCH   2  34
BRANCH   3  43
ATOM     43  O   UNL     1     155.113 115.157 127.092  0.00  0.00    +0.000 OA
BRANCH  43  44
ATOM     44  C   UNL     1     155.012 115.653 126.689  0.00  0.00    +0.000 C 
ATOM     45  O   UNL     1     154.446 115.697 126.354  0.00  0.00    +0.000 OA
BRANCH  44  46
ATOM     46  C   UNL     1     155.472 116.099 126.625  0.00  0.00    +0.000 A 
ATOM     47  N   UNL     1     156.474 116.541 126.902  0.00  0.00    +0.000 NA
ATOM     48  C   UNL     1     156.014 116.089 126.973  0.00  0.00    +0.000 A 
ATOM     49  C   UNL     1     155.390 116.575 126.195  0.00  0.00    +0.000 A 
ATOM     50  C   UNL     1     156.391 117.020 126.470  0.00  0.00    +0.000 A 
ATOM     51  C   UNL     1     155.848 117.037 126.116  0.00  0.00    +0.000 A 
ENDBRANCH  44  46
ENDBRANCH  43  44
ENDBRANCH   3  43
BRANCH   1  52
ATOM     52  O   UNL     1     155.120 114.126 126.365  0.00  0.00    +0.000 OA
BRANCH  52  53
ATOM     53  C   UNL     1     155.679 113.821 126.515  0.00  0.00    +0.000 C 
ATOM     54  O   UNL     1     155.785 113.602 127.118  0.00  0.00    +0.000 OA
BRANCH  53  55
ATOM     55  C   UNL     1     156.118 113.745 126.051  0.00  0.00    +0.000 A 
ATOM     56  N   UNL     1     156.439 113.926 124.962  0.00  0.00    +0.000 NA
ATOM     57  C   UNL     1     156.004 113.991 125.451  0.00  0.00    +0.000 A 
ATOM     58  C   UNL     1     156.689 113.424 126.153  0.00  0.00    +0.000 A 
ATOM     59  C   UNL     1     157.010 113.605 125.064  0.00  0.00    +0.000 A 
ATOM     60  C   UNL     1     157.131 113.354 125.665  0.00  0.00    +0.000 A 
ENDBRANCH  53  55
ENDBRANCH  52  53
ENDBRANCH   1  52
TORSDOF 18
ENDMDL
MODEL 19
REMARK VINA RESULT:      -8.3     25.059     27.525
REMARK  Name = 
REMARK  18 active torsions:
REMARK  status: ('A' for Active; 'I' for Inactive)
REMARK    1  A    between atoms: C_1  and  O_7
REMARK    2  A    between atoms: C_2  and  O_9
REMARK    3  A    between atoms: C_3  and  O_8
REMARK    4  A    between atoms: C_4  and  O_10
REMARK    5  A    between atoms: C_5  and  O_11
REMARK    6  A    between atoms: C_6  and  O_12
REMARK    7  A    between atoms: O_7  and  C_13
REMARK    8  A    between atoms: O_8  and  C_14
REMARK    9  A    between atoms: O_9  and  C_15
REMARK   10  A    between atoms: O_10  and  C_16
REMARK   11  A    between atoms: O_11  and  C_17
REMARK   12  A    between atoms: O_12  and  C_18
REMARK   13  A    between atoms: C_13  and  C_19
REMARK   14  A    between atoms: C_14  and  C_20
REMARK   15  A    between atoms: C_15  and  C_21
REMARK   16  A    between atoms: C_16  and  C_22
REMARK   17  A    between atoms: C_17  and  C_23
REMARK   18  A    between atoms: C_18  and  C_24
REMARK                            x       y       z     vdW  Elec       q    Type
REMARK                         _______ _______ _______ _____ _____    ______ ____
ROOT
ATOM      1  C   UNL     1     141.319 118.467 129.514  0.00  0.00    +0.000 C 
ATOM      2  C   UNL     1     140.708 118.366 129.269  0.00  0.00    +0.000 C 
ATOM      3  C   UNL     1     141.396 118.702 130.103  0.00  0.00    +0.000 C 
ATOM      4  C   UNL     1     140.200 118.503 129.623  0.00  0.00    +0.000 C 
ATOM      5  C   UNL     1     140.864 118.844 130.468  0.00  0.00    +0.000 C 
ATOM      6  C   UNL     1     140.279 118.746 130.230  0.00  0.00    +0.000 C 
ENDROOT
BRANCH   6   7
ATOM      7  O   UNL     1     139.762 118.894 130.609  0.00  0.00    +0.000 OA
BRANCH   7   8
ATOM      8  C   UNL     1     139.498 119.485 130.574  0.00  0.00    +0.000 C 
ATOM      9  O   UNL     1     139.754 119.932 130.177  0.00  0.00    +0.000 OA
BRANCH   8  10
ATOM     10  C   UNL     1     138.976 119.614 130.944  0.00  0.00    +0.000 A 
ATOM     11  N   UNL     1     138.190 119.296 131.705  0.00  0.00    +0.000 NA
ATOM     12  C   UNL     1     138.711 119.154 131.340  0.00  0.00    +0.000 A 
ATOM     13  C   UNL     1     138.712 120.213 130.922  0.00  0.00    +0.000 A 
ATOM     14  C   UNL     1     137.917 119.903 131.686  0.00  0.00    +0.000 A 
ATOM     15  C   UNL     1     138.181 120.364 131.291  0.00  0.00    +0.000 A 
ENDBRANCH   8  10
ENDBRANCH   7   8
ENDBRANCH   6   7
BRANCH   5  16
ATOM     16  O   UNL     1     140.942 119.085 131.071  0.00  0.00    +0.000 OA
BRANCH  16  17
ATOM     17  C   UNL     1     140.987 118.692 131.570  0.00  0.00    +0.000 C 
ATOM     18  O   UNL     1     140.950 118.036 131.488  0.00  0.00    +0.000 OA
BRANCH  17  19
ATOM     19  C   UNL     1     141.070 118.943 132.177  0.00  0.00    +0.000 A 
ATOM     20  N   UNL     1     141.190 119.841 132.860  0.00  0.00    +0.000 NA
ATOM     21  C   UNL     1     141.108 119.597 132.263  0.00  0.00    +0.000 A 
ATOM     22  C   UNL     1     141.114 118.545 132.683  0.00  0.00    +0.000 A 
ATOM     23  C   UNL     1     141.235 119.442 133.380  0.00  0.00    +0.000 A 
ATOM     24  C   UNL     1     141.197 118.789 133.294  0.00  0.00    +0.000 A 
ENDBRANCH  17  19
ENDBRANCH  16  17
ENDBRANCH   5  16
BRANCH   4  25
ATOM     25  O   UNL     1     139.587 118.410 129.397  0.00  0.00    +0.000 OA
BRANCH  25  26
ATOM     26  C   UNL     1     139.307 117.835 129.492  0.00  0.00    +0.000 C 
ATOM     27  O   UNL     1     139.620 117.356 129.812  0.00  0.00    +0.000 OA
BRANCH  26  28
ATOM     28  C   UNL     1     138.711 117.751 129.261  0.00  0.00    +0.000 A 
ATOM     29  N   UNL     1     137.807 117.082 129.131  0.00  0.00    +0.000 NA
ATOM     30  C   UNL     1     138.414 117.181 129.361  0.00  0.00    +0.000 A 
ATOM     31  C   UNL     1     138.398 118.215 128.932  0.00  0.00    +0.000 A 
ATOM     32  C   UNL     1     137.495 117.551 128.801  0.00  0.00    +0.000 A 
ATOM     33  C   UNL     1     137.803 118.125 128.704  0.00  0.00    +0.000 A 
ENDBRANCH  26  28
ENDBRANCH  25  26
ENDBRANCH   4  25
BRANCH   2  34
ATOM     34  O   UNL     1     140.631 118.128 128.673  0.00  0.00    +0.000 OA
BRANCH  34  35
ATOM     35  C   UNL     1     140.588 118.522 128.178  0.00  0.00    +0.000 C 
ATOM     36  O   UNL     1     140.621 119.173 128.257  0.00  0.00    +0.000 OA
BRANCH  35  37
ATOM     37  C   UNL     1     140.509 118.269 127.576  0.00  0.00    +0.000 A 
ATOM     38  N   UNL     1     140.401 117.372 126.898  0.00  0.00    +0.000 NA
ATOM     39  C   UNL     1     140.480 117.637 127.497  0.00  0.00    +0.000 A 
ATOM     40  C   UNL     1     140.460 118.657 127.061  0.00  0.00    +0.000 A 
ATOM     41  C   UNL     1     140.350 117.751 126.375  0.00  0.00    +0.000 A 
ATOM     42  C   UNL     1     140.380 118.402 126.455  0.00  0.00    +0.000 A 
ENDBRANCH  35  37
ENDBRANCH  34  35
ENDBRANCH   2  34
BRANCH   3  43
ATOM     43  O   UNL     1     142.003 118.792 130.318  0.00  0.00    +0.000 OA
BRANCH  43  44
ATOM     44  C   UNL     1     142.289 119.367 130.241  0.00  0.00    +0.000 C 
ATOM     45  O   UNL     1     141.976 119.853 129.926  0.00  0.00    +0.000 OA
BRANCH  44  46
ATOM     46  C   UNL     1     142.882 119.452 130.478  0.00  0.00    +0.000 A 
ATOM     47  N   UNL     1     143.789 119.085 131.042  0.00  0.00    +0.000 NA
ATOM     48  C   UNL     1     143.192 118.992 130.807  0.00  0.00    +0.000 A 
ATOM     49  C   UNL     1     143.180 120.018 130.384  0.00  0.00    +0.000 A 
ATOM     50  C   UNL     1     144.088 119.655 130.947  0.00  0.00    +0.000 A 
ATOM     51  C   UNL     1     143.782 120.122 130.617  0.00  0.00    +0.000 A 
ENDBRANCH  44  46
ENDBRANCH  43  44
ENDBRANCH   3  43
BRANCH   1  52
ATOM     52  O   UNL     1     141.852 118.327 129.154  0.00  0.00    +0.000 OA
BRANCH  52  53
ATOM     53  C   UNL     1     142.116 117.729 129.175  0.00  0.00    +0.000 C 
ATOM     54  O   UNL     1     141.867 117.270 129.561  0.00  0.00    +0.000 OA
BRANCH  53  55
ATOM     55  C   UNL     1     142.627 117.610 128.803  0.00  0.00    +0.000 A 
ATOM     56  N   UNL     1     143.384 117.983 128.022  0.00  0.00    +0.000 NA
ATOM     57  C   UNL     1     142.863 118.083 128.411  0.00  0.00    +0.000 A 
ATOM     58  C   UNL     1     142.931 117.021 128.799  0.00  0.00    +0.000 A 
ATOM     59  C   UNL     1     143.688 117.394 128.018  0.00  0.00    +0.000 A 
ATOM     60  C   UNL     1     143.457 116.913 128.410  0.00  0.00    +0.000 A 
ENDBRANCH  53  55
ENDBRANCH  52  53
ENDBRANCH   1  52
TORSDOF 18
ENDMDL
MODEL 20
REMARK VINA RESULT:      -8.2     25.669     27.660
REMARK  Name = 
REMARK  18 active torsions:
REMARK  status: ('A' for Active; 'I' for Inactive)
REMARK    1  A    between atoms: C_1  and  O_7
REMARK    2  A    between atoms: C_2  and  O_9
REMARK    3  A    between atoms: C_3  and  O_8
REMARK    4  A    between atoms: C_4  and  O_10
REMARK    5  A    between atoms: C_5  and  O_11
REMARK    6  A    between atoms: C_6  and  O_12
REMARK    7  A    between atoms: O_7  and  C_13
REMARK    8  A    between atoms: O_8  and  C_14
REMARK    9  A    between atoms: O_9  and  C_15
REMARK   10  A    between atoms: O_10  and  C_16
REMARK   11  A    between atoms: O_11  and  C_17
REMARK   12  A    between atoms: O_12  and  C_18
REMARK   13  A    between atoms: C_13  and  C_19
REMARK   14  A    between atoms: C_14  and  C_20
REMARK   15  A    between atoms: C_15  and  C_21
REMARK   16  A    between atoms: C_16  and  C_22
REMARK   17  A    between atoms: C_17  and  C_23
REMARK   18  A    between atoms: C_18  and  C_24
REMARK                            x       y       z     vdW  Elec       q    Type
REMARK                         _______ _______ _______ _____ _____    ______ ____
ROOT
ATOM      1  C   UNL     1     140.843 118.957 130.500  0.00  0.00    +0.000 C 
ATOM      2  C   UNL     1     141.403 118.751 130.203  0.00  0.00    +0.000 C 
ATOM      3  C   UNL     1     140.273 118.782 130.272  0.00  0.00    +0.000 C 
ATOM      4  C   UNL     1     141.368 118.378 129.691  0.00  0.00    +0.000 C 
ATOM      5  C   UNL     1     140.242 118.394 129.739  0.00  0.00    +0.000 C 
ATOM      6  C   UNL     1     140.780 118.197 129.455  0.00  0.00    +0.000 C 
ENDROOT
BRANCH   6   7
ATOM      7  O   UNL     1     140.728 117.811 128.926  0.00  0.00    +0.000 OA
BRANCH   7   8
ATOM      8  C   UNL     1     140.708 118.078 128.335  0.00  0.00    +0.000 C 
ATOM      9  O   UNL     1     140.727 118.725 128.271  0.00  0.00    +0.000 OA
BRANCH   8  10
ATOM     10  C   UNL     1     140.667 117.684 127.817  0.00  0.00    +0.000 A 
ATOM     11  N   UNL     1     140.617 116.642 127.358  0.00  0.00    +0.000 NA
ATOM     12  C   UNL     1     140.658 117.025 127.885  0.00  0.00    +0.000 A 
ATOM     13  C   UNL     1     140.636 117.948 127.219  0.00  0.00    +0.000 A 
ATOM     14  C   UNL     1     140.585 116.905 126.748  0.00  0.00    +0.000 A 
ATOM     15  C   UNL     1     140.594 117.564 126.680  0.00  0.00    +0.000 A 
ENDBRANCH   8  10
ENDBRANCH   7   8
ENDBRANCH   6   7
BRANCH   5  16
ATOM     16  O   UNL     1     139.658 118.214 129.505  0.00  0.00    +0.000 OA
BRANCH  16  17
ATOM     17  C   UNL     1     139.377 117.683 129.717  0.00  0.00    +0.000 C 
ATOM     18  O   UNL     1     139.672 117.303 130.172  0.00  0.00    +0.000 OA
BRANCH  17  19
ATOM     19  C   UNL     1     138.785 117.509 129.478  0.00  0.00    +0.000 A 
ATOM     20  N   UNL     1     137.904 117.714 128.794  0.00  0.00    +0.000 NA
ATOM     21  C   UNL     1     138.485 117.887 129.027  0.00  0.00    +0.000 A 
ATOM     22  C   UNL     1     138.503 116.968 129.689  0.00  0.00    +0.000 A 
ATOM     23  C   UNL     1     137.610 117.165 129.003  0.00  0.00    +0.000 A 
ATOM     24  C   UNL     1     137.910 116.787 129.454  0.00  0.00    +0.000 A 
ENDBRANCH  17  19
ENDBRANCH  16  17
ENDBRANCH   5  16
BRANCH   4  25
ATOM     25  O   UNL     1     141.911 118.163 129.383  0.00  0.00    +0.000 OA
BRANCH  25  26
ATOM     26  C   UNL     1     142.180 117.610 129.580  0.00  0.00    +0.000 C 
ATOM     27  O   UNL     1     141.917 117.263 130.070  0.00  0.00    +0.000 OA
BRANCH  26  28
ATOM     28  C   UNL     1     142.715 117.413 129.278  0.00  0.00    +0.000 A 
ATOM     29  N   UNL     1     143.532 116.639 129.160  0.00  0.00    +0.000 NA
ATOM     30  C   UNL     1     142.987 116.851 129.460  0.00  0.00    +0.000 A 
ATOM     31  C   UNL     1     142.990 117.756 128.801  0.00  0.00    +0.000 A 
ATOM     32  C   UNL     1     143.805 116.986 128.680  0.00  0.00    +0.000 A 
ATOM     33  C   UNL     1     143.523 117.554 128.503  0.00  0.00    +0.000 A 
ENDBRANCH  26  28
ENDBRANCH  25  26
ENDBRANCH   4  25
BRANCH   2  34
ATOM     34  O   UNL     1     141.980 118.928 130.433  0.00  0.00    +0.000 OA
BRANCH  34  35
ATOM     35  C   UNL     1     142.257 119.458 130.220  0.00  0.00    +0.000 C 
ATOM     36  O   UNL     1     141.968 119.834 129.766  0.00  0.00    +0.000 OA
BRANCH  35  37
ATOM     37  C   UNL     1     142.844 119.630 130.463  0.00  0.00    +0.000 A 
ATOM     38  N   UNL     1     143.716 119.424 131.150  0.00  0.00    +0.000 NA
ATOM     39  C   UNL     1     143.128 119.263 130.900  0.00  0.00    +0.000 A 
ATOM     40  C   UNL     1     143.137 120.169 130.261  0.00  0.00    +0.000 A 
ATOM     41  C   UNL     1     144.019 119.963 130.954  0.00  0.00    +0.000 A 
ATOM     42  C   UNL     1     143.727 120.341 130.505  0.00  0.00    +0.000 A 
ENDBRANCH  35  37
ENDBRANCH  34  35
ENDBRANCH   2  34
BRANCH   3  43
ATOM     43  O   UNL     1     139.743 118.998 130.581  0.00  0.00    +0.000 OA
BRANCH  43  44
ATOM     44  C   UNL     1     139.458 119.544 130.385  0.00  0.00    +0.000 C 
ATOM     45  O   UNL     1     139.720 119.897 129.895  0.00  0.00    +0.000 OA
BRANCH  44  46
ATOM     46  C   UNL     1     138.917 119.733 130.679  0.00  0.00    +0.000 A 
ATOM     47  N   UNL     1     138.106 119.596 131.453  0.00  0.00    +0.000 NA
ATOM     48  C   UNL     1     138.651 119.399 131.162  0.00  0.00    +0.000 A 
ATOM     49  C   UNL     1     138.628 120.278 130.485  0.00  0.00    +0.000 A 
ATOM     50  C   UNL     1     137.815 120.144 131.257  0.00  0.00    +0.000 A 
ATOM     51  C   UNL     1     138.078 120.486 130.772  0.00  0.00    +0.000 A 
ENDBRANCH  44  46
ENDBRANCH  43  44
ENDBRANCH   3  43
BRANCH   1  52
ATOM     52  O   UNL     1     140.870 119.344 131.031  0.00  0.00    +0.000 OA
BRANCH  52  53
ATOM     53  C   UNL     1     140.903 119.082 131.629  0.00  0.00    +0.000 C 
ATOM     54  O   UNL     1     140.895 118.436 131.708  0.00  0.00    +0.000 OA
BRANCH  53  55
ATOM     55  C   UNL     1     140.942 119.478 132.134  0.00  0.00    +0.000 A 
ATOM     56  N   UNL     1     141.009 119.617 133.273  0.00  0.00    +0.000 NA
ATOM     57  C   UNL     1     140.969 119.230 132.743  0.00  0.00    +0.000 A 
ATOM     58  C   UNL     1     140.957 120.138 132.065  0.00  0.00    +0.000 A 
ATOM     59  C   UNL     1     141.024 120.276 133.204  0.00  0.00    +0.000 A 
ATOM     60  C   UNL     1     140.998 120.533 132.594  0.00  0.00    +0.000 A 
ENDBRANCH  53  55
ENDBRANCH  52  53
ENDBRANCH   1  52
TORSDOF 18
ENDMDL
