REMARK  Name = 
REMARK  2 active torsions:
REMARK  status: ('A' for Active; 'I' for Inactive)
REMARK    1  A    between atoms: C_11  and  S_12
REMARK    2  A    between atoms: S_12  and  N_13
REMARK                            x       y       z     vdW  Elec       q    Type
REMARK                         _______ _______ _______ _____ _____    ______ ____
ROOT
ATOM      1 CL   UNL     1       5.096   2.389   0.000  0.00  0.00    +0.000 Cl
ENDROOT
TORSDOF 0
REMARK  Name = 
REMARK  2 active torsions:
REMARK  status: ('A' for Active; 'I' for Inactive)
REMARK    1  A    between atoms: C_11  and  S_12
REMARK    2  A    between atoms: S_12  and  N_13
REMARK                            x       y       z     vdW  Elec       q    Type
REMARK                         _______ _______ _______ _____ _____    ______ ____
ROOT
ATOM      1  C   UNL     1      -2.611   0.749   0.000  0.00  0.00    +0.000 A 
ATOM      2  N   UNL     1      -2.611  -0.749   0.000  0.00  0.00    +0.000 NA
ATOM      3  C   UNL     1      -1.296  -1.497   0.000  0.00  0.00    +0.000 A 
ATOM      4  C   UNL     1      -1.296   1.497   0.000  0.00  0.00    +0.000 A 
ATOM      5  C   UNL     1       0.000   0.749   0.000  0.00  0.00    +0.000 A 
ATOM      6  C   UNL     1       0.000  -0.749   0.000  0.00  0.00    +0.000 A 
ATOM      7  C   UNL     1       1.296  -1.497   0.000  0.00  0.00    +0.000 A 
ATOM      8  C   UNL     1       2.593  -0.749   0.000  0.00  0.00    +0.000 A 
ATOM      9  C   UNL     1       2.593   0.749   0.000  0.00  0.00    +0.000 A 
ATOM     10  C   UNL     1       1.296   1.497   0.000  0.00  0.00    +0.000 A 
ENDROOT
BRANCH  10  11
ATOM     11  S   UNL     1       1.296   2.998   0.000  0.00  0.00    +0.000 S 
ATOM     12  O   UNL     1       2.336   3.598   0.000  0.00  0.00    +0.000 OA
ATOM     13  O   UNL     1       2.336   2.398   0.000  0.00  0.00    +0.000 OA
BRANCH  11  14
ATOM     14  N   UNL     1      -0.003   3.749   0.000  0.00  0.00    +0.000 NA
ATOM     15  C   UNL     1      -2.690   3.357   0.000  0.00  0.00    +0.000 C 
ATOM     16  N   UNL     1      -3.237   4.753   0.000  0.00  0.00    +0.000 NA
ATOM     17  C   UNL     1      -2.486   6.052   0.000  0.00  0.00    +0.000 C 
ATOM     18  C   UNL     1      -1.257   2.913   0.000  0.00  0.00    +0.000 C 
ATOM     19  C   UNL     1       0.096   5.253   0.000  0.00  0.00    +0.000 C 
ATOM     20  C   UNL     1      -1.003   6.274   0.000  0.00  0.00    +0.000 C 
ENDBRANCH  11  14
ENDBRANCH  10  11
TORSDOF 2
