REMARK  Name = 
REMARK  4 active torsions:
REMARK  status: ('A' for Active; 'I' for Inactive)
REMARK    1  A    between atoms: C_3  and  C_11
REMARK    2  A    between atoms: C_11  and  C_20
REMARK    3  A    between atoms: C_19  and  O_22
REMARK    4  A    between atoms: C_20  and  O_22
REMARK                            x       y       z     vdW  Elec       q    Type
REMARK                         _______ _______ _______ _____ _____    ______ ____
ROOT
ATOM      1  C   UNL     1       4.042  -6.362   0.000  0.00  0.00    +0.000 C 
ATOM      2  C   UNL     1       2.192  -7.412   0.000  0.00  0.00    +0.000 C 
ATOM      3  C   UNL     1       4.717  -6.150   0.000  0.00  0.00    +0.000 C 
ATOM      4  C   UNL     1       3.417  -7.417   0.000  0.00  0.00    +0.000 C 
ATOM      5  C   UNL     1       4.029  -7.067   0.000  0.00  0.00    +0.000 C 
ATOM      6  C   UNL     1       2.804  -7.054   0.000  0.00  0.00    +0.000 C 
ATOM      7  C   UNL     1       2.192  -8.117   0.000  0.00  0.00    +0.000 C 
ATOM      8  C   UNL     1       3.429  -6.000   0.000  0.00  0.00    +0.000 C 
ATOM      9  C   UNL     1       2.812  -6.350   0.000  0.00  0.00    +0.000 C 
ATOM     10  C   UNL     1       1.579  -7.054   0.000  0.00  0.00    +0.000 C 
ATOM     11  C   UNL     1       1.579  -8.475   0.000  0.00  0.00    +0.000 C 
ATOM     12  C   UNL     1       5.125  -6.725   0.000  0.00  0.00    +0.000 C 
ATOM     13  C   UNL     1       4.704  -7.292   0.000  0.00  0.00    +0.000 C 
ATOM     14  C   UNL     1       3.417  -8.125   0.000  0.00  0.00    +0.000 C 
ATOM     15  C   UNL     1       0.975  -7.412   0.000  0.00  0.00    +0.000 C 
ATOM     16  C   UNL     1       0.975  -8.117   0.000  0.00  0.00    +0.000 C 
ATOM     17  C   UNL     1       2.804  -8.475   0.000  0.00  0.00    +0.000 C 
ATOM     18  O   UNL     1       0.354  -8.467   0.000  0.00  0.00    +0.000 OA
ATOM     19  O   UNL     1       5.329  -5.792   0.000  0.00  0.00    +0.000 OA
ATOM     20  C   UNL     1       4.037  -5.654   0.000  0.00  0.00    +0.000 C 
ATOM     21  O   UNL     1       2.196  -5.992   0.000  0.00  0.00    +0.000 OA
ATOM     22  C   UNL     1       2.192  -6.704   0.000  0.00  0.00    +0.000 C 
ENDROOT
BRANCH   3  23
ATOM     23  C   UNL     1       4.713  -5.442   0.000  0.00  0.00    +0.000 C 
ATOM     24  O   UNL     1       4.092  -5.092   0.000  0.00  0.00    +0.000 OA
BRANCH  23  25
ATOM     25  C   UNL     1       5.317  -5.079   0.000  0.00  0.00    +0.000 C 
BRANCH  25  26
ATOM     26  O   UNL     1       5.938  -5.429   0.000  0.00  0.00    +0.000 OA
BRANCH  26  27
ATOM     27  C   UNL     1       6.550  -5.067   0.000  0.00  0.00    +0.000 C 
ATOM     28  O   UNL     1       6.542  -4.362   0.000  0.00  0.00    +0.000 OA
ATOM     29  C   UNL     1       7.162  -5.417   0.000  0.00  0.00    +0.000 C 
ENDBRANCH  26  27
ENDBRANCH  25  26
ENDBRANCH  23  25
ENDBRANCH   3  23
TORSDOF 4
