REMARK  Name = 
REMARK  3 active torsions:
REMARK  status: ('A' for Active; 'I' for Inactive)
REMARK    1  A    between atoms: C_9  and  C_20
REMARK    2  A    between atoms: C_16  and  C_24
REMARK    3  A    between atoms: C_20  and  C_24
REMARK                            x       y       z     vdW  Elec       q    Type
REMARK                         _______ _______ _______ _____ _____    ______ ____
ROOT
ATOM      1  K   UNL     1       3.062   2.671   0.000  0.00  0.00    +0.000 K 
ENDROOT
TORSDOF 0
REMARK  Name = 
REMARK  3 active torsions:
REMARK  status: ('A' for Active; 'I' for Inactive)
REMARK    1  A    between atoms: C_9  and  C_20
REMARK    2  A    between atoms: C_16  and  C_24
REMARK    3  A    between atoms: C_20  and  C_24
REMARK                            x       y       z     vdW  Elec       q    Type
REMARK                         _______ _______ _______ _____ _____    ______ ____
ROOT
ATOM      1  C   UNL     1      -0.921  -1.679   0.000  0.00  0.00    +0.000 C 
ATOM      2  C   UNL     1       2.042   0.033   0.000  0.00  0.00    +0.000 C 
ATOM      3  C   UNL     1      -0.921  -2.817   0.000  0.00  0.00    +0.000 C 
ATOM      4  C   UNL     1       1.054  -1.679   0.000  0.00  0.00    +0.000 C 
ATOM      5  C   UNL     1       0.067  -1.104   0.000  0.00  0.00    +0.000 C 
ATOM      6  C   UNL     1       2.042  -1.104   0.000  0.00  0.00    +0.000 C 
ATOM      7  C   UNL     1       1.054  -2.817   0.000  0.00  0.00    +0.000 C 
ATOM      8  C   UNL     1       3.112   0.396   0.000  0.00  0.00    +0.000 C 
ATOM      9  C   UNL     1       0.067  -3.388   0.000  0.00  0.00    +0.000 C 
ATOM     10  C   UNL     1      -1.908  -3.388   0.000  0.00  0.00    +0.000 C 
ATOM     11  C   UNL     1       1.054   0.600   0.000  0.00  0.00    +0.000 C 
ATOM     12  C   UNL     1       0.067   0.033   0.000  0.00  0.00    +0.000 C 
ATOM     13  C   UNL     1      -1.908  -1.104   0.000  0.00  0.00    +0.000 C 
ATOM     14  C   UNL     1       3.100  -1.442   0.000  0.00  0.00    +0.000 C 
ATOM     15  C   UNL     1      -2.888  -2.817   0.000  0.00  0.00    +0.000 C 
ATOM     16  C   UNL     1       3.779  -0.517   0.000  0.00  0.00    +0.000 C 
ATOM     17  O   UNL     1      -3.875  -3.388   0.000  0.00  0.00    +0.000 OA
ATOM     18  C   UNL     1      -2.888  -1.679   0.000  0.00  0.00    +0.000 C 
ATOM     19  O   UNL     1       3.929   1.146   0.000  0.00  0.00    +0.000 OA
ATOM     20  C   UNL     1      -0.921  -0.537   0.000  0.00  0.00    +0.000 C 
ATOM     21  C   UNL     1       2.154   1.163   0.000  0.00  0.00    +0.000 C 
ENDROOT
BRANCH   8  22
ATOM     22  C   UNL     1       2.867   1.483   0.000  0.00  0.00    +0.000 C 
BRANCH  22  23
ATOM     23  C   UNL     1       1.742   1.621   0.000  0.00  0.00    +0.000 C 
BRANCH  23  24
ATOM     24  C   UNL     1       1.492   2.725   0.000  0.00  0.00    +0.000 C 
ATOM     25  O   UNL     1       2.275   3.462   0.000  0.00  0.00    +0.000 OA
ATOM     26  O   UNL     1       0.400   3.087   0.000  0.00  0.00    +0.000 OA
ENDBRANCH  23  24
ENDBRANCH  22  23
ENDBRANCH   8  22
TORSDOF 3
