MODEL 1
REMARK VINA RESULT:      -8.7      0.000      0.000
REMARK  Name = 
REMARK  5 active torsions:
REMARK  status: ('A' for Active; 'I' for Inactive)
REMARK    1  A    between atoms: S_1  and  C_4
REMARK    2  A    between atoms: S_1  and  N_6
REMARK    3  A    between atoms: S_2  and  C_3
REMARK    4  A    between atoms: N_6  and  C_7
REMARK    5  A    between atoms: C_7  and  C_13
REMARK                            x       y       z     vdW  Elec       q    Type
REMARK                         _______ _______ _______ _____ _____    ______ ____
ROOT
ATOM      1  S   UNL     1     142.757 111.046 164.278  0.00  0.00    +0.000 S 
ATOM      2  O   UNL     1     143.600 111.644 164.363  0.00  0.00    +0.000 OA
ATOM      3  O   UNL     1     141.937 110.464 164.195  0.00  0.00    +0.000 OA
ENDROOT
BRANCH   1   5
ATOM      4  C   UNL     1     143.934 109.309 162.553  0.00  0.00    +0.000 A 
ATOM      5  C   UNL     1     143.132 110.642 163.399  0.00  0.00    +0.000 A 
ATOM      6  C   UNL     1     143.559 109.713 163.432  0.00  0.00    +0.000 A 
ATOM      7  C   UNL     1     143.863 109.857 161.686  0.00  0.00    +0.000 A 
ATOM      8  C   UNL     1     143.065 111.173 162.552  0.00  0.00    +0.000 A 
ATOM      9  C   UNL     1     143.440 110.769 161.672  0.00  0.00    +0.000 A 
ATOM     10 CL   UNL     1     144.235 109.457 160.814  0.00  0.00    +0.000 Cl
BRANCH   4  11
ATOM     11  S   UNL     1     144.373 108.367 162.558  0.00  0.00    +0.000 S 
ATOM     12  O   UNL     1     143.423 107.934 162.517  0.00  0.00    +0.000 OA
ATOM     13  O   UNL     1     145.321 108.830 162.599  0.00  0.00    +0.000 OA
ATOM     14  N   UNL     1     144.832 107.422 162.563  0.00  0.00    +0.000 NA
ENDBRANCH   4  11
ENDBRANCH   1   5
BRANCH   1  15
ATOM     15  N   UNL     1     142.382 111.449 165.157  0.00  0.00    +0.000 NA
ATOM     16  C   UNL     1     143.017 111.572 165.952  0.00  0.00    +0.000 C 
BRANCH  15  17
ATOM     17  C   UNL     1     141.413 111.707 165.206  0.00  0.00    +0.000 C 
BRANCH  17  18
ATOM     18  C   UNL     1     141.159 112.693 165.376  0.00  0.00    +0.000 C 
ATOM     19  O   UNL     1     141.268 113.541 164.800  0.00  0.00    +0.000 OA
ATOM     20  C   UNL     1     140.988 112.014 166.024  0.00  0.00    +0.000 C 
ATOM     21  C   UNL     1     140.723 112.947 166.240  0.00  0.00    +0.000 C 
ATOM     22  C   UNL     1     140.891 114.322 165.324  0.00  0.00    +0.000 C 
ATOM     23  C   UNL     1     140.562 113.941 166.203  0.00  0.00    +0.000 C 
ENDBRANCH  17  18
ENDBRANCH  15  17
ENDBRANCH   1  15
TORSDOF 5
ENDMDL
MODEL 2
REMARK VINA RESULT:      -8.4      2.296      5.204
REMARK  Name = 
REMARK  5 active torsions:
REMARK  status: ('A' for Active; 'I' for Inactive)
REMARK    1  A    between atoms: S_1  and  C_4
REMARK    2  A    between atoms: S_1  and  N_6
REMARK    3  A    between atoms: S_2  and  C_3
REMARK    4  A    between atoms: N_6  and  C_7
REMARK    5  A    between atoms: C_7  and  C_13
REMARK                            x       y       z     vdW  Elec       q    Type
REMARK                         _______ _______ _______ _____ _____    ______ ____
ROOT
ATOM      1  S   UNL     1     142.371 110.665 163.684  0.00  0.00    +0.000 S 
ATOM      2  O   UNL     1     142.607 110.231 164.595  0.00  0.00    +0.000 OA
ATOM      3  O   UNL     1     142.141 111.088 162.798  0.00  0.00    +0.000 OA
ENDROOT
BRANCH   1   5
ATOM      4  C   UNL     1     142.875 113.112 164.750  0.00  0.00    +0.000 A 
ATOM      5  C   UNL     1     142.222 111.577 164.158  0.00  0.00    +0.000 A 
ATOM      6  C   UNL     1     143.024 112.201 164.276  0.00  0.00    +0.000 A 
ATOM      7  C   UNL     1     141.932 113.352 165.080  0.00  0.00    +0.000 A 
ATOM      8  C   UNL     1     141.304 111.814 164.480  0.00  0.00    +0.000 A 
ATOM      9  C   UNL     1     141.155 112.725 164.954  0.00  0.00    +0.000 A 
ATOM     10 CL   UNL     1     141.784 114.255 165.549  0.00  0.00    +0.000 Cl
BRANCH   4  11
ATOM     11  S   UNL     1     143.673 113.766 164.884  0.00  0.00    +0.000 S 
ATOM     12  O   UNL     1     143.841 113.353 165.829  0.00  0.00    +0.000 OA
ATOM     13  O   UNL     1     143.481 114.166 163.926  0.00  0.00    +0.000 OA
ATOM     14  N   UNL     1     144.475 114.433 165.004  0.00  0.00    +0.000 NA
ENDBRANCH   4  11
ENDBRANCH   1   5
BRANCH   1  15
ATOM     15  N   UNL     1     142.520 109.755 163.211  0.00  0.00    +0.000 NA
ATOM     16  C   UNL     1     141.710 109.273 162.805  0.00  0.00    +0.000 C 
BRANCH  15  17
ATOM     17  C   UNL     1     143.446 109.371 163.163  0.00  0.00    +0.000 C 
BRANCH  17  18
ATOM     18  C   UNL     1     143.862 109.165 162.240  0.00  0.00    +0.000 C 
ATOM     19  O   UNL     1     144.148 109.777 161.462  0.00  0.00    +0.000 OA
ATOM     20  C   UNL     1     143.651 108.470 162.860  0.00  0.00    +0.000 C 
ATOM     21  C   UNL     1     144.049 108.215 161.986  0.00  0.00    +0.000 C 
ATOM     22  C   UNL     1     144.515 109.189 160.724  0.00  0.00    +0.000 C 
ATOM     23  C   UNL     1     144.448 108.235 161.061  0.00  0.00    +0.000 C 
ENDBRANCH  17  18
ENDBRANCH  15  17
ENDBRANCH   1  15
TORSDOF 5
ENDMDL
MODEL 3
REMARK VINA RESULT:      -8.3      2.167      5.492
REMARK  Name = 
REMARK  5 active torsions:
REMARK  status: ('A' for Active; 'I' for Inactive)
REMARK    1  A    between atoms: S_1  and  C_4
REMARK    2  A    between atoms: S_1  and  N_6
REMARK    3  A    between atoms: S_2  and  C_3
REMARK    4  A    between atoms: N_6  and  C_7
REMARK    5  A    between atoms: C_7  and  C_13
REMARK                            x       y       z     vdW  Elec       q    Type
REMARK                         _______ _______ _______ _____ _____    ______ ____
ROOT
ATOM      1  S   UNL     1     143.185 110.313 163.347  0.00  0.00    +0.000 S 
ATOM      2  O   UNL     1     143.286 111.108 162.689  0.00  0.00    +0.000 OA
ATOM      3  O   UNL     1     143.088 109.539 163.986  0.00  0.00    +0.000 OA
ENDROOT
BRANCH   1   5
ATOM      4  C   UNL     1     142.092 111.980 165.192  0.00  0.00    +0.000 A 
ATOM      5  C   UNL     1     143.104 110.978 164.139  0.00  0.00    +0.000 A 
ATOM      6  C   UNL     1     142.174 111.315 164.399  0.00  0.00    +0.000 A 
ATOM      7  C   UNL     1     142.946 112.273 165.683  0.00  0.00    +0.000 A 
ATOM      8  C   UNL     1     143.934 111.265 164.621  0.00  0.00    +0.000 A 
ATOM      9  C   UNL     1     143.853 111.931 165.414  0.00  0.00    +0.000 A 
ATOM     10 CL   UNL     1     142.865 112.932 166.469  0.00  0.00    +0.000 Cl
BRANCH   4  11
ATOM     11  S   UNL     1     141.159 112.339 165.477  0.00  0.00    +0.000 S 
ATOM     12  O   UNL     1     141.108 111.597 166.211  0.00  0.00    +0.000 OA
ATOM     13  O   UNL     1     141.236 113.079 164.727  0.00  0.00    +0.000 OA
ATOM     14  N   UNL     1     140.218 112.714 165.753  0.00  0.00    +0.000 NA
ENDBRANCH   4  11
ENDBRANCH   1   5
BRANCH   1  15
ATOM     15  N   UNL     1     143.267 109.648 162.555  0.00  0.00    +0.000 NA
ATOM     16  C   UNL     1     142.617 108.856 162.509  0.00  0.00    +0.000 C 
BRANCH  15  17
ATOM     17  C   UNL     1     143.974 109.797 161.858  0.00  0.00    +0.000 C 
BRANCH  17  18
ATOM     18  C   UNL     1     144.719 109.091 161.734  0.00  0.00    +0.000 C 
ATOM     19  O   UNL     1     145.508 108.812 162.334  0.00  0.00    +0.000 OA
ATOM     20  C   UNL     1     144.047 109.231 161.071  0.00  0.00    +0.000 C 
ATOM     21  C   UNL     1     144.740 108.540 160.900  0.00  0.00    +0.000 C 
ATOM     22  C   UNL     1     146.017 108.078 161.856  0.00  0.00    +0.000 C 
ATOM     23  C   UNL     1     145.533 107.923 160.979  0.00  0.00    +0.000 C 
ENDBRANCH  17  18
ENDBRANCH  15  17
ENDBRANCH   1  15
TORSDOF 5
ENDMDL
MODEL 4
REMARK VINA RESULT:      -8.3     71.443     72.552
REMARK  Name = 
REMARK  5 active torsions:
REMARK  status: ('A' for Active; 'I' for Inactive)
REMARK    1  A    between atoms: S_1  and  C_4
REMARK    2  A    between atoms: S_1  and  N_6
REMARK    3  A    between atoms: S_2  and  C_3
REMARK    4  A    between atoms: N_6  and  C_7
REMARK    5  A    between atoms: C_7  and  C_13
REMARK                            x       y       z     vdW  Elec       q    Type
REMARK                         _______ _______ _______ _____ _____    ______ ____
ROOT
ATOM      1  S   UNL     1     127.532 149.181 103.513  0.00  0.00    +0.000 S 
ATOM      2  O   UNL     1     128.567 149.153 103.456  0.00  0.00    +0.000 OA
ATOM      3  O   UNL     1     126.526 149.209 103.569  0.00  0.00    +0.000 OA
ENDROOT
BRANCH   1   5
ATOM      4  C   UNL     1     127.716 147.553 105.680  0.00  0.00    +0.000 A 
ATOM      5  C   UNL     1     127.540 148.321 104.094  0.00  0.00    +0.000 A 
ATOM      6  C   UNL     1     127.708 148.413 105.099  0.00  0.00    +0.000 A 
ATOM      7  C   UNL     1     127.557 146.646 105.224  0.00  0.00    +0.000 A 
ATOM      8  C   UNL     1     127.385 147.435 103.654  0.00  0.00    +0.000 A 
ATOM      9  C   UNL     1     127.394 146.574 104.234  0.00  0.00    +0.000 A 
ATOM     10 CL   UNL     1     127.565 145.793 105.800  0.00  0.00    +0.000 Cl
BRANCH   4  11
ATOM     11  S   UNL     1     127.884 147.617 106.704  0.00  0.00    +0.000 S 
ATOM     12  O   UNL     1     128.905 147.470 106.537  0.00  0.00    +0.000 OA
ATOM     13  O   UNL     1     126.847 147.764 106.844  0.00  0.00    +0.000 OA
ATOM     14  N   UNL     1     128.036 147.684 107.741  0.00  0.00    +0.000 NA
ENDBRANCH   4  11
ENDBRANCH   1   5
BRANCH   1  15
ATOM     15  N   UNL     1     127.523 150.041 102.933  0.00  0.00    +0.000 NA
ATOM     16  C   UNL     1     128.209 150.130 102.175  0.00  0.00    +0.000 C 
BRANCH  15  17
ATOM     17  C   UNL     1     126.849 150.759 103.127  0.00  0.00    +0.000 C 
BRANCH  17  18
ATOM     18  C   UNL     1     127.174 151.722 103.312  0.00  0.00    +0.000 C 
ATOM     19  O   UNL     1     127.749 152.121 104.068  0.00  0.00    +0.000 OA
ATOM     20  C   UNL     1     126.637 151.513 102.551  0.00  0.00    +0.000 C 
ATOM     21  C   UNL     1     126.922 152.456 102.681  0.00  0.00    +0.000 C 
ATOM     22  C   UNL     1     127.847 153.114 103.893  0.00  0.00    +0.000 C 
ATOM     23  C   UNL     1     127.334 153.302 103.039  0.00  0.00    +0.000 C 
ENDBRANCH  17  18
ENDBRANCH  15  17
ENDBRANCH   1  15
TORSDOF 5
ENDMDL
MODEL 5
REMARK VINA RESULT:      -8.2     33.349     34.491
REMARK  Name = 
REMARK  5 active torsions:
REMARK  status: ('A' for Active; 'I' for Inactive)
REMARK    1  A    between atoms: S_1  and  C_4
REMARK    2  A    between atoms: S_1  and  N_6
REMARK    3  A    between atoms: S_2  and  C_3
REMARK    4  A    between atoms: N_6  and  C_7
REMARK    5  A    between atoms: C_7  and  C_13
REMARK                            x       y       z     vdW  Elec       q    Type
REMARK                         _______ _______ _______ _____ _____    ______ ____
ROOT
ATOM      1  S   UNL     1     153.594 131.999 139.035  0.00  0.00    +0.000 S 
ATOM      2  O   UNL     1     154.419 132.097 138.414  0.00  0.00    +0.000 OA
ATOM      3  O   UNL     1     152.792 131.903 139.638  0.00  0.00    +0.000 OA
ENDROOT
BRANCH   1   5
ATOM      4  C   UNL     1     152.131 131.882 136.749  0.00  0.00    +0.000 A 
ATOM      5  C   UNL     1     152.973 132.284 138.254  0.00  0.00    +0.000 A 
ATOM      6  C   UNL     1     152.753 131.596 137.530  0.00  0.00    +0.000 A 
ATOM      7  C   UNL     1     151.764 132.841 136.733  0.00  0.00    +0.000 A 
ATOM      8  C   UNL     1     152.613 133.218 138.235  0.00  0.00    +0.000 A 
ATOM      9  C   UNL     1     151.991 133.504 137.454  0.00  0.00    +0.000 A 
ATOM     10 CL   UNL     1     151.148 133.124 135.959  0.00  0.00    +0.000 Cl
BRANCH   4  11
ATOM     11  S   UNL     1     151.891 131.202 135.999  0.00  0.00    +0.000 S 
ATOM     12  O   UNL     1     151.056 130.901 136.552  0.00  0.00    +0.000 OA
ATOM     13  O   UNL     1     152.740 131.525 135.461  0.00  0.00    +0.000 OA
ATOM     14  N   UNL     1     151.661 130.521 135.233  0.00  0.00    +0.000 NA
ENDBRANCH   4  11
ENDBRANCH   1   5
BRANCH   1  15
ATOM     15  N   UNL     1     154.215 131.713 139.815  0.00  0.00    +0.000 NA
ATOM     16  C   UNL     1     155.090 132.228 139.961  0.00  0.00    +0.000 C 
BRANCH  15  17
ATOM     17  C   UNL     1     153.945 130.945 140.403  0.00  0.00    +0.000 C 
BRANCH  17  18
ATOM     18  C   UNL     1     154.528 130.093 140.422  0.00  0.00    +0.000 C 
ATOM     19  O   UNL     1     154.729 129.380 139.705  0.00  0.00    +0.000 OA
ATOM     20  C   UNL     1     154.445 130.659 141.186  0.00  0.00    +0.000 C 
ATOM     21  C   UNL     1     155.019 129.852 141.259  0.00  0.00    +0.000 C 
ATOM     22  C   UNL     1     155.352 128.695 140.116  0.00  0.00    +0.000 C 
ATOM     23  C   UNL     1     155.520 128.999 141.068  0.00  0.00    +0.000 C 
ENDBRANCH  17  18
ENDBRANCH  15  17
ENDBRANCH   1  15
TORSDOF 5
ENDMDL
MODEL 6
REMARK VINA RESULT:      -8.1     71.017     72.141
REMARK  Name = 
REMARK  5 active torsions:
REMARK  status: ('A' for Active; 'I' for Inactive)
REMARK    1  A    between atoms: S_1  and  C_4
REMARK    2  A    between atoms: S_1  and  N_6
REMARK    3  A    between atoms: S_2  and  C_3
REMARK    4  A    between atoms: N_6  and  C_7
REMARK    5  A    between atoms: C_7  and  C_13
REMARK                            x       y       z     vdW  Elec       q    Type
REMARK                         _______ _______ _______ _____ _____    ______ ____
ROOT
ATOM      1  S   UNL     1     127.151 148.879 105.114  0.00  0.00    +0.000 S 
ATOM      2  O   UNL     1     127.706 149.398 105.819  0.00  0.00    +0.000 OA
ATOM      3  O   UNL     1     126.611 148.374 104.429  0.00  0.00    +0.000 OA
ENDROOT
BRANCH   1   5
ATOM      4  C   UNL     1     127.902 150.437 103.020  0.00  0.00    +0.000 A 
ATOM      5  C   UNL     1     127.211 149.689 104.469  0.00  0.00    +0.000 A 
ATOM      6  C   UNL     1     127.841 149.626 103.665  0.00  0.00    +0.000 A 
ATOM      7  C   UNL     1     127.329 151.268 103.213  0.00  0.00    +0.000 A 
ATOM      8  C   UNL     1     126.655 150.501 104.654  0.00  0.00    +0.000 A 
ATOM      9  C   UNL     1     126.716 151.312 104.008  0.00  0.00    +0.000 A 
ATOM     10 CL   UNL     1     127.390 152.072 102.573  0.00  0.00    +0.000 Cl
BRANCH   4  11
ATOM     11  S   UNL     1     128.534 150.400 102.195  0.00  0.00    +0.000 S 
ATOM     12  O   UNL     1     129.313 150.769 102.787  0.00  0.00    +0.000 OA
ATOM     13  O   UNL     1     127.730 150.029 101.620  0.00  0.00    +0.000 OA
ATOM     14  N   UNL     1     129.159 150.357 101.352  0.00  0.00    +0.000 NA
ENDBRANCH   4  11
ENDBRANCH   1   5
BRANCH   1  15
ATOM     15  N   UNL     1     127.090 148.068 105.759  0.00  0.00    +0.000 NA
ATOM     16  C   UNL     1     126.714 148.217 106.701  0.00  0.00    +0.000 C 
BRANCH  15  17
ATOM     17  C   UNL     1     127.400 147.166 105.446  0.00  0.00    +0.000 C 
BRANCH  17  18
ATOM     18  C   UNL     1     128.183 146.702 105.934  0.00  0.00    +0.000 C 
ATOM     19  O   UNL     1     129.171 146.966 106.055  0.00  0.00    +0.000 OA
ATOM     20  C   UNL     1     127.309 146.319 105.914  0.00  0.00    +0.000 C 
ATOM     21  C   UNL     1     128.026 145.830 106.398  0.00  0.00    +0.000 C 
ATOM     22  C   UNL     1     129.621 146.242 106.601  0.00  0.00    +0.000 C 
ATOM     23  C   UNL     1     128.906 145.554 106.803  0.00  0.00    +0.000 C 
ENDBRANCH  17  18
ENDBRANCH  15  17
ENDBRANCH   1  15
TORSDOF 5
ENDMDL
MODEL 7
REMARK VINA RESULT:      -8.1     22.926     25.252
REMARK  Name = 
REMARK  5 active torsions:
REMARK  status: ('A' for Active; 'I' for Inactive)
REMARK    1  A    between atoms: S_1  and  C_4
REMARK    2  A    between atoms: S_1  and  N_6
REMARK    3  A    between atoms: S_2  and  C_3
REMARK    4  A    between atoms: N_6  and  C_7
REMARK    5  A    between atoms: C_7  and  C_13
REMARK                            x       y       z     vdW  Elec       q    Type
REMARK                         _______ _______ _______ _____ _____    ______ ____
ROOT
ATOM      1  S   UNL     1     124.247 126.006 172.323  0.00  0.00    +0.000 S 
ATOM      2  O   UNL     1     125.201 126.329 172.569  0.00  0.00    +0.000 OA
ATOM      3  O   UNL     1     123.319 125.692 172.083  0.00  0.00    +0.000 OA
ENDROOT
BRANCH   1   5
ATOM      4  C   UNL     1     125.234 124.997 170.002  0.00  0.00    +0.000 A 
ATOM      5  C   UNL     1     124.528 125.937 171.326  0.00  0.00    +0.000 A 
ATOM      6  C   UNL     1     124.953 125.065 170.999  0.00  0.00    +0.000 A 
ATOM      7  C   UNL     1     125.075 125.803 169.385  0.00  0.00    +0.000 A 
ATOM      8  C   UNL     1     124.374 126.720 170.721  0.00  0.00    +0.000 A 
ATOM      9  C   UNL     1     124.656 126.652 169.724  0.00  0.00    +0.000 A 
ATOM     10 CL   UNL     1     125.354 125.735 168.397  0.00  0.00    +0.000 Cl
BRANCH   4  11
ATOM     11  S   UNL     1     125.668 124.123 169.642  0.00  0.00    +0.000 S 
ATOM     12  O   UNL     1     126.610 124.495 169.902  0.00  0.00    +0.000 OA
ATOM     13  O   UNL     1     124.705 123.771 169.389  0.00  0.00    +0.000 OA
ATOM     14  N   UNL     1     126.091 123.235 169.275  0.00  0.00    +0.000 NA
ENDBRANCH   4  11
ENDBRANCH   1   5
BRANCH   1  15
ATOM     15  N   UNL     1     123.966 126.074 173.318  0.00  0.00    +0.000 NA
ATOM     16  C   UNL     1     124.685 125.960 174.041  0.00  0.00    +0.000 C 
BRANCH  15  17
ATOM     17  C   UNL     1     123.004 126.250 173.548  0.00  0.00    +0.000 C 
BRANCH  17  18
ATOM     18  C   UNL     1     122.766 127.055 174.150  0.00  0.00    +0.000 C 
ATOM     19  O   UNL     1     122.837 128.071 173.999  0.00  0.00    +0.000 OA
ATOM     20  C   UNL     1     122.638 126.155 174.443  0.00  0.00    +0.000 C 
ATOM     21  C   UNL     1     122.392 126.892 175.063  0.00  0.00    +0.000 C 
ATOM     22  C   UNL     1     122.500 128.533 174.835  0.00  0.00    +0.000 C 
ATOM     23  C   UNL     1     122.231 127.796 175.477  0.00  0.00    +0.000 C 
ENDBRANCH  17  18
ENDBRANCH  15  17
ENDBRANCH   1  15
TORSDOF 5
ENDMDL
MODEL 8
REMARK VINA RESULT:      -8.1     20.917     23.514
REMARK  Name = 
REMARK  5 active torsions:
REMARK  status: ('A' for Active; 'I' for Inactive)
REMARK    1  A    between atoms: S_1  and  C_4
REMARK    2  A    between atoms: S_1  and  N_6
REMARK    3  A    between atoms: S_2  and  C_3
REMARK    4  A    between atoms: N_6  and  C_7
REMARK    5  A    between atoms: C_7  and  C_13
REMARK                            x       y       z     vdW  Elec       q    Type
REMARK                         _______ _______ _______ _____ _____    ______ ____
ROOT
ATOM      1  S   UNL     1     131.315 122.010 180.178  0.00  0.00    +0.000 S 
ATOM      2  O   UNL     1     130.821 122.899 179.974  0.00  0.00    +0.000 OA
ATOM      3  O   UNL     1     131.795 121.146 180.376  0.00  0.00    +0.000 OA
ENDROOT
BRANCH   1   5
ATOM      4  C   UNL     1     129.755 121.526 182.348  0.00  0.00    +0.000 A 
ATOM      5  C   UNL     1     130.512 121.697 180.757  0.00  0.00    +0.000 A 
ATOM      6  C   UNL     1     130.557 121.840 181.769  0.00  0.00    +0.000 A 
ATOM      7  C   UNL     1     128.950 121.087 181.884  0.00  0.00    +0.000 A 
ATOM      8  C   UNL     1     129.726 121.268 180.308  0.00  0.00    +0.000 A 
ATOM      9  C   UNL     1     128.924 120.955 180.887  0.00  0.00    +0.000 A 
ATOM     10 CL   UNL     1     128.154 120.776 182.458  0.00  0.00    +0.000 Cl
BRANCH   4  11
ATOM     11  S   UNL     1     129.773 121.659 183.379  0.00  0.00    +0.000 S 
ATOM     12  O   UNL     1     130.266 120.743 183.479  0.00  0.00    +0.000 OA
ATOM     13  O   UNL     1     129.275 122.581 183.250  0.00  0.00    +0.000 OA
ATOM     14  N   UNL     1     129.784 121.808 184.419  0.00  0.00    +0.000 NA
ENDBRANCH   4  11
ENDBRANCH   1   5
BRANCH   1  15
ATOM     15  N   UNL     1     132.116 122.323 179.599  0.00  0.00    +0.000 NA
ATOM     16  C   UNL     1     132.498 123.262 179.754  0.00  0.00    +0.000 C 
BRANCH  15  17
ATOM     17  C   UNL     1     132.495 121.703 178.907  0.00  0.00    +0.000 C 
BRANCH  17  18
ATOM     18  C   UNL     1     132.458 121.973 177.910  0.00  0.00    +0.000 C 
ATOM     19  O   UNL     1     131.668 122.130 177.269  0.00  0.00    +0.000 OA
ATOM     20  C   UNL     1     133.289 121.867 178.369  0.00  0.00    +0.000 C 
ATOM     21  C   UNL     1     133.311 122.128 177.411  0.00  0.00    +0.000 C 
ATOM     22  C   UNL     1     132.047 122.384 176.365  0.00  0.00    +0.000 C 
ATOM     23  C   UNL     1     133.055 122.378 176.469  0.00  0.00    +0.000 C 
ENDBRANCH  17  18
ENDBRANCH  15  17
ENDBRANCH   1  15
TORSDOF 5
ENDMDL
MODEL 9
REMARK VINA RESULT:      -8.0     20.415     22.746
REMARK  Name = 
REMARK  5 active torsions:
REMARK  status: ('A' for Active; 'I' for Inactive)
REMARK    1  A    between atoms: S_1  and  C_4
REMARK    2  A    between atoms: S_1  and  N_6
REMARK    3  A    between atoms: S_2  and  C_3
REMARK    4  A    between atoms: N_6  and  C_7
REMARK    5  A    between atoms: C_7  and  C_13
REMARK                            x       y       z     vdW  Elec       q    Type
REMARK                         _______ _______ _______ _____ _____    ______ ____
ROOT
ATOM      1  S   UNL     1     130.928 122.094 179.826  0.00  0.00    +0.000 S 
ATOM      2  O   UNL     1     130.466 122.995 179.599  0.00  0.00    +0.000 OA
ATOM      3  O   UNL     1     131.377 121.219 180.046  0.00  0.00    +0.000 OA
ENDROOT
BRANCH   1   5
ATOM      4  C   UNL     1     132.798 122.534 177.905  0.00  0.00    +0.000 A 
ATOM      5  C   UNL     1     131.796 122.423 179.361  0.00  0.00    +0.000 A 
ATOM      6  C   UNL     1     131.930 122.205 178.370  0.00  0.00    +0.000 A 
ATOM      7  C   UNL     1     133.486 123.062 178.456  0.00  0.00    +0.000 A 
ATOM      8  C   UNL     1     132.469 122.938 179.894  0.00  0.00    +0.000 A 
ATOM      9  C   UNL     1     133.337 123.267 179.430  0.00  0.00    +0.000 A 
ATOM     10 CL   UNL     1     134.347 123.388 177.995  0.00  0.00    +0.000 Cl
BRANCH   4  11
ATOM     11  S   UNL     1     132.961 122.327 176.899  0.00  0.00    +0.000 S 
ATOM     12  O   UNL     1     132.502 123.232 176.648  0.00  0.00    +0.000 OA
ATOM     13  O   UNL     1     133.420 121.418 177.181  0.00  0.00    +0.000 OA
ATOM     14  N   UNL     1     133.133 122.103 175.888  0.00  0.00    +0.000 NA
ENDBRANCH   4  11
ENDBRANCH   1   5
BRANCH   1  15
ATOM     15  N   UNL     1     130.061 121.766 180.290  0.00  0.00    +0.000 NA
ATOM     16  C   UNL     1     129.158 121.974 179.850  0.00  0.00    +0.000 C 
BRANCH  15  17
ATOM     17  C   UNL     1     130.127 121.257 181.152  0.00  0.00    +0.000 C 
BRANCH  17  18
ATOM     18  C   UNL     1     129.716 121.660 182.011  0.00  0.00    +0.000 C 
ATOM     19  O   UNL     1     129.990 122.465 182.592  0.00  0.00    +0.000 OA
ATOM     20  C   UNL     1     129.335 120.895 181.585  0.00  0.00    +0.000 C 
ATOM     21  C   UNL     1     128.900 121.241 182.409  0.00  0.00    +0.000 C 
ATOM     22  C   UNL     1     129.328 122.536 183.355  0.00  0.00    +0.000 C 
ATOM     23  C   UNL     1     128.667 121.779 183.228  0.00  0.00    +0.000 C 
ENDBRANCH  17  18
ENDBRANCH  15  17
ENDBRANCH   1  15
TORSDOF 5
ENDMDL
MODEL 10
REMARK VINA RESULT:      -8.0     20.154     22.407
REMARK  Name = 
REMARK  5 active torsions:
REMARK  status: ('A' for Active; 'I' for Inactive)
REMARK    1  A    between atoms: S_1  and  C_4
REMARK    2  A    between atoms: S_1  and  N_6
REMARK    3  A    between atoms: S_2  and  C_3
REMARK    4  A    between atoms: N_6  and  C_7
REMARK    5  A    between atoms: C_7  and  C_13
REMARK                            x       y       z     vdW  Elec       q    Type
REMARK                         _______ _______ _______ _____ _____    ______ ____
ROOT
ATOM      1  S   UNL     1     130.126 121.632 179.078  0.00  0.00    +0.000 S 
ATOM      2  O   UNL     1     130.244 122.650 179.235  0.00  0.00    +0.000 OA
ATOM      3  O   UNL     1     130.011 120.642 178.924  0.00  0.00    +0.000 OA
ENDROOT
BRANCH   1   5
ATOM      4  C   UNL     1     132.530 121.994 177.866  0.00  0.00    +0.000 A 
ATOM      5  C   UNL     1     130.857 121.661 178.341  0.00  0.00    +0.000 A 
ATOM      6  C   UNL     1     131.799 121.966 178.602  0.00  0.00    +0.000 A 
ATOM      7  C   UNL     1     132.281 121.717 176.908  0.00  0.00    +0.000 A 
ATOM      8  C   UNL     1     130.618 121.391 177.407  0.00  0.00    +0.000 A 
ATOM      9  C   UNL     1     131.349 121.420 176.671  0.00  0.00    +0.000 A 
ATOM     10 CL   UNL     1     133.006 121.746 176.178  0.00  0.00    +0.000 Cl
BRANCH   4  11
ATOM     11  S   UNL     1     133.495 122.300 178.102  0.00  0.00    +0.000 S 
ATOM     12  O   UNL     1     133.751 121.306 178.301  0.00  0.00    +0.000 OA
ATOM     13  O   UNL     1     133.210 123.295 177.894  0.00  0.00    +0.000 OA
ATOM     14  N   UNL     1     134.466 122.625 178.338  0.00  0.00    +0.000 NA
ENDBRANCH   4  11
ENDBRANCH   1   5
BRANCH   1  15
ATOM     15  N   UNL     1     129.395 121.603 179.813  0.00  0.00    +0.000 NA
ATOM     16  C   UNL     1     128.623 122.277 179.766  0.00  0.00    +0.000 C 
BRANCH  15  17
ATOM     17  C   UNL     1     129.462 120.921 180.547  0.00  0.00    +0.000 C 
BRANCH  17  18
ATOM     18  C   UNL     1     129.527 121.238 181.528  0.00  0.00    +0.000 C 
ATOM     19  O   UNL     1     130.263 121.747 182.039  0.00  0.00    +0.000 OA
ATOM     20  C   UNL     1     128.762 120.769 181.203  0.00  0.00    +0.000 C 
ATOM     21  C   UNL     1     128.772 121.050 182.156  0.00  0.00    +0.000 C 
ATOM     22  C   UNL     1     129.948 121.870 182.994  0.00  0.00    +0.000 C 
ATOM     23  C   UNL     1     129.033 121.437 183.049  0.00  0.00    +0.000 C 
ENDBRANCH  17  18
ENDBRANCH  15  17
ENDBRANCH   1  15
TORSDOF 5
ENDMDL
MODEL 11
REMARK VINA RESULT:      -7.9     19.707     22.223
REMARK  Name = 
REMARK  5 active torsions:
REMARK  status: ('A' for Active; 'I' for Inactive)
REMARK    1  A    between atoms: S_1  and  C_4
REMARK    2  A    between atoms: S_1  and  N_6
REMARK    3  A    between atoms: S_2  and  C_3
REMARK    4  A    between atoms: N_6  and  C_7
REMARK    5  A    between atoms: C_7  and  C_13
REMARK                            x       y       z     vdW  Elec       q    Type
REMARK                         _______ _______ _______ _____ _____    ______ ____
ROOT
ATOM      1  S   UNL     1     129.857 121.469 178.988  0.00  0.00    +0.000 S 
ATOM      2  O   UNL     1     129.989 122.496 179.042  0.00  0.00    +0.000 OA
ATOM      3  O   UNL     1     129.728 120.471 178.935  0.00  0.00    +0.000 OA
ENDROOT
BRANCH   1   5
ATOM      4  C   UNL     1     130.839 121.059 176.489  0.00  0.00    +0.000 A 
ATOM      5  C   UNL     1     130.521 121.426 178.192  0.00  0.00    +0.000 A 
ATOM      6  C   UNL     1     130.175 121.102 177.285  0.00  0.00    +0.000 A 
ATOM      7  C   UNL     1     131.815 121.341 176.642  0.00  0.00    +0.000 A 
ATOM      8  C   UNL     1     131.473 121.701 178.337  0.00  0.00    +0.000 A 
ATOM      9  C   UNL     1     132.138 121.657 177.541  0.00  0.00    +0.000 A 
ATOM     10 CL   UNL     1     132.474 121.298 175.853  0.00  0.00    +0.000 Cl
BRANCH   4  11
ATOM     11  S   UNL     1     130.514 120.734 175.556  0.00  0.00    +0.000 S 
ATOM     12  O   UNL     1     130.786 119.757 175.812  0.00  0.00    +0.000 OA
ATOM     13  O   UNL     1     130.249 121.729 175.324  0.00  0.00    +0.000 OA
ATOM     14  N   UNL     1     130.182 120.422 174.610  0.00  0.00    +0.000 NA
ENDBRANCH   4  11
ENDBRANCH   1   5
BRANCH   1  15
ATOM     15  N   UNL     1     129.193 121.513 179.784  0.00  0.00    +0.000 NA
ATOM     16  C   UNL     1     128.435 122.203 179.755  0.00  0.00    +0.000 C 
BRANCH  15  17
ATOM     17  C   UNL     1     129.308 120.882 180.556  0.00  0.00    +0.000 C 
BRANCH  17  18
ATOM     18  C   UNL     1     129.449 121.264 181.505  0.00  0.00    +0.000 C 
ATOM     19  O   UNL     1     130.211 121.822 181.916  0.00  0.00    +0.000 OA
ATOM     20  C   UNL     1     128.672 120.757 181.280  0.00  0.00    +0.000 C 
ATOM     21  C   UNL     1     128.757 121.101 182.209  0.00  0.00    +0.000 C 
ATOM     22  C   UNL     1     129.977 122.000 182.885  0.00  0.00    +0.000 C 
ATOM     23  C   UNL     1     129.083 121.552 183.048  0.00  0.00    +0.000 C 
ENDBRANCH  17  18
ENDBRANCH  15  17
ENDBRANCH   1  15
TORSDOF 5
ENDMDL
MODEL 12
REMARK VINA RESULT:      -7.9      1.681      2.103
REMARK  Name = 
REMARK  5 active torsions:
REMARK  status: ('A' for Active; 'I' for Inactive)
REMARK    1  A    between atoms: S_1  and  C_4
REMARK    2  A    between atoms: S_1  and  N_6
REMARK    3  A    between atoms: S_2  and  C_3
REMARK    4  A    between atoms: N_6  and  C_7
REMARK    5  A    between atoms: C_7  and  C_13
REMARK                            x       y       z     vdW  Elec       q    Type
REMARK                         _______ _______ _______ _____ _____    ______ ____
ROOT
ATOM      1  S   UNL     1     142.180 112.767 164.257  0.00  0.00    +0.000 S 
ATOM      2  O   UNL     1     142.949 113.387 163.941  0.00  0.00    +0.000 OA
ATOM      3  O   UNL     1     141.432 112.165 164.565  0.00  0.00    +0.000 OA
ENDROOT
BRANCH   1   5
ATOM      4  C   UNL     1     142.514 110.379 163.006  0.00  0.00    +0.000 A 
ATOM      5  C   UNL     1     142.450 112.066 163.541  0.00  0.00    +0.000 A 
ATOM      6  C   UNL     1     142.243 111.080 163.722  0.00  0.00    +0.000 A 
ATOM      7  C   UNL     1     142.978 110.701 162.147  0.00  0.00    +0.000 A 
ATOM      8  C   UNL     1     142.902 112.376 162.703  0.00  0.00    +0.000 A 
ATOM      9  C   UNL     1     143.173 111.675 161.987  0.00  0.00    +0.000 A 
ATOM     10 CL   UNL     1     143.246 110.006 161.437  0.00  0.00    +0.000 Cl
BRANCH   4  11
ATOM     11  S   UNL     1     142.316 109.371 163.163  0.00  0.00    +0.000 S 
ATOM     12  O   UNL     1     143.256 109.264 163.608  0.00  0.00    +0.000 OA
ATOM     13  O   UNL     1     141.372 109.506 162.710  0.00  0.00    +0.000 OA
ATOM     14  N   UNL     1     142.100 108.354 163.315  0.00  0.00    +0.000 NA
ENDBRANCH   4  11
ENDBRANCH   1   5
BRANCH   1  15
ATOM     15  N   UNL     1     141.909 113.467 164.973  0.00  0.00    +0.000 NA
ATOM     16  C   UNL     1     142.649 113.943 165.500  0.00  0.00    +0.000 C 
BRANCH  15  17
ATOM     17  C   UNL     1     140.936 113.660 165.129  0.00  0.00    +0.000 C 
BRANCH  17  18
ATOM     18  C   UNL     1     140.584 114.622 164.999  0.00  0.00    +0.000 C 
ATOM     19  O   UNL     1     140.454 115.199 164.155  0.00  0.00    +0.000 OA
ATOM     20  C   UNL     1     140.643 114.224 165.864  0.00  0.00    +0.000 C 
ATOM     21  C   UNL     1     140.296 115.153 165.796  0.00  0.00    +0.000 C 
ATOM     22  C   UNL     1     140.082 116.095 164.446  0.00  0.00    +0.000 C 
ATOM     23  C   UNL     1     139.991 116.050 165.454  0.00  0.00    +0.000 C 
ENDBRANCH  17  18
ENDBRANCH  15  17
ENDBRANCH   1  15
TORSDOF 5
ENDMDL
MODEL 13
REMARK VINA RESULT:      -7.9     32.934     34.145
REMARK  Name = 
REMARK  5 active torsions:
REMARK  status: ('A' for Active; 'I' for Inactive)
REMARK    1  A    between atoms: S_1  and  C_4
REMARK    2  A    between atoms: S_1  and  N_6
REMARK    3  A    between atoms: S_2  and  C_3
REMARK    4  A    between atoms: N_6  and  C_7
REMARK    5  A    between atoms: C_7  and  C_13
REMARK                            x       y       z     vdW  Elec       q    Type
REMARK                         _______ _______ _______ _____ _____    ______ ____
ROOT
ATOM      1  S   UNL     1     152.905 130.634 137.939  0.00  0.00    +0.000 S 
ATOM      2  O   UNL     1     153.595 131.232 137.447  0.00  0.00    +0.000 OA
ATOM      3  O   UNL     1     152.235 130.052 138.418  0.00  0.00    +0.000 OA
ENDROOT
BRANCH   1   5
ATOM      4  C   UNL     1     154.387 130.570 140.215  0.00  0.00    +0.000 A 
ATOM      5  C   UNL     1     153.311 130.916 138.852  0.00  0.00    +0.000 A 
ATOM      6  C   UNL     1     153.980 130.287 139.303  0.00  0.00    +0.000 A 
ATOM      7  C   UNL     1     154.102 131.467 140.628  0.00  0.00    +0.000 A 
ATOM      8  C   UNL     1     153.037 131.790 139.257  0.00  0.00    +0.000 A 
ATOM      9  C   UNL     1     153.443 132.073 140.170  0.00  0.00    +0.000 A 
ATOM     10 CL   UNL     1     154.505 131.747 141.533  0.00  0.00    +0.000 Cl
BRANCH   4  11
ATOM     11  S   UNL     1     155.069 129.950 140.697  0.00  0.00    +0.000 S 
ATOM     12  O   UNL     1     155.842 130.388 140.146  0.00  0.00    +0.000 OA
ATOM     13  O   UNL     1     154.269 129.524 141.240  0.00  0.00    +0.000 OA
ATOM     14  N   UNL     1     155.745 129.316 141.191  0.00  0.00    +0.000 NA
ENDBRANCH   4  11
ENDBRANCH   1   5
BRANCH   1  15
ATOM     15  N   UNL     1     152.499 130.351 137.028  0.00  0.00    +0.000 NA
ATOM     16  C   UNL     1     153.134 130.163 136.244  0.00  0.00    +0.000 C 
BRANCH  15  17
ATOM     17  C   UNL     1     151.503 130.270 136.937  0.00  0.00    +0.000 C 
BRANCH  17  18
ATOM     18  C   UNL     1     151.006 130.874 136.262  0.00  0.00    +0.000 C 
ATOM     19  O   UNL     1     150.937 131.899 136.177  0.00  0.00    +0.000 OA
ATOM     20  C   UNL     1     150.968 129.923 136.203  0.00  0.00    +0.000 C 
ATOM     21  C   UNL     1     150.470 130.456 135.528  0.00  0.00    +0.000 C 
ATOM     22  C   UNL     1     150.350 132.105 135.377  0.00  0.00    +0.000 C 
ATOM     23  C   UNL     1     150.073 131.210 134.991  0.00  0.00    +0.000 C 
ENDBRANCH  17  18
ENDBRANCH  15  17
ENDBRANCH   1  15
TORSDOF 5
ENDMDL
MODEL 14
REMARK VINA RESULT:      -7.9     20.331     22.280
REMARK  Name = 
REMARK  5 active torsions:
REMARK  status: ('A' for Active; 'I' for Inactive)
REMARK    1  A    between atoms: S_1  and  C_4
REMARK    2  A    between atoms: S_1  and  N_6
REMARK    3  A    between atoms: S_2  and  C_3
REMARK    4  A    between atoms: N_6  and  C_7
REMARK    5  A    between atoms: C_7  and  C_13
REMARK                            x       y       z     vdW  Elec       q    Type
REMARK                         _______ _______ _______ _____ _____    ______ ____
ROOT
ATOM      1  S   UNL     1     130.552 121.456 177.901  0.00  0.00    +0.000 S 
ATOM      2  O   UNL     1     131.179 122.270 177.763  0.00  0.00    +0.000 OA
ATOM      3  O   UNL     1     129.942 120.665 178.035  0.00  0.00    +0.000 OA
ENDROOT
BRANCH   1   5
ATOM      4  C   UNL     1     130.424 121.740 180.599  0.00  0.00    +0.000 A 
ATOM      5  C   UNL     1     130.285 121.820 178.836  0.00  0.00    +0.000 A 
ATOM      6  C   UNL     1     130.690 121.376 179.664  0.00  0.00    +0.000 A 
ATOM      7  C   UNL     1     129.767 122.528 180.656  0.00  0.00    +0.000 A 
ATOM      8  C   UNL     1     129.645 122.588 178.895  0.00  0.00    +0.000 A 
ATOM      9  C   UNL     1     129.379 122.951 179.830  0.00  0.00    +0.000 A 
ATOM     10 CL   UNL     1     129.503 122.888 181.583  0.00  0.00    +0.000 Cl
BRANCH   4  11
ATOM     11  S   UNL     1     130.820 121.308 181.459  0.00  0.00    +0.000 S 
ATOM     12  O   UNL     1     131.666 121.915 181.363  0.00  0.00    +0.000 OA
ATOM     13  O   UNL     1     129.955 120.707 181.532  0.00  0.00    +0.000 OA
ATOM     14  N   UNL     1     131.206 120.862 182.328  0.00  0.00    +0.000 NA
ENDBRANCH   4  11
ENDBRANCH   1   5
BRANCH   1  15
ATOM     15  N   UNL     1     130.818 121.093 176.967  0.00  0.00    +0.000 NA
ATOM     16  C   UNL     1     131.785 121.215 176.649  0.00  0.00    +0.000 C 
BRANCH  15  17
ATOM     17  C   UNL     1     130.126 120.634 176.402  0.00  0.00    +0.000 C 
BRANCH  17  18
ATOM     18  C   UNL     1     129.921 120.998 175.458  0.00  0.00    +0.000 C 
ATOM     19  O   UNL     1     129.486 121.877 175.139  0.00  0.00    +0.000 OA
ATOM     20  C   UNL     1     130.336 120.149 175.586  0.00  0.00    +0.000 C 
ATOM     21  C   UNL     1     130.161 120.451 174.656  0.00  0.00    +0.000 C 
ATOM     22  C   UNL     1     129.463 121.861 174.126  0.00  0.00    +0.000 C 
ATOM     23  C   UNL     1     129.880 120.981 173.846  0.00  0.00    +0.000 C 
ENDBRANCH  17  18
ENDBRANCH  15  17
ENDBRANCH   1  15
TORSDOF 5
ENDMDL
MODEL 15
REMARK VINA RESULT:      -7.8      2.551      5.727
REMARK  Name = 
REMARK  5 active torsions:
REMARK  status: ('A' for Active; 'I' for Inactive)
REMARK    1  A    between atoms: S_1  and  C_4
REMARK    2  A    between atoms: S_1  and  N_6
REMARK    3  A    between atoms: S_2  and  C_3
REMARK    4  A    between atoms: N_6  and  C_7
REMARK    5  A    between atoms: C_7  and  C_13
REMARK                            x       y       z     vdW  Elec       q    Type
REMARK                         _______ _______ _______ _____ _____    ______ ____
ROOT
ATOM      1  S   UNL     1     142.416 112.048 164.630  0.00  0.00    +0.000 S 
ATOM      2  O   UNL     1     143.242 112.608 164.909  0.00  0.00    +0.000 OA
ATOM      3  O   UNL     1     141.612 111.503 164.359  0.00  0.00    +0.000 OA
ENDROOT
BRANCH   1   5
ATOM      4  C   UNL     1     141.028 114.272 165.344  0.00  0.00    +0.000 A 
ATOM      5  C   UNL     1     141.801 112.688 165.169  0.00  0.00    +0.000 A 
ATOM      6  C   UNL     1     141.643 113.632 164.806  0.00  0.00    +0.000 A 
ATOM      7  C   UNL     1     140.603 113.934 166.217  0.00  0.00    +0.000 A 
ATOM      8  C   UNL     1     141.385 112.362 166.019  0.00  0.00    +0.000 A 
ATOM      9  C   UNL     1     140.770 113.002 166.558  0.00  0.00    +0.000 A 
ATOM     10 CL   UNL     1     139.993 114.568 166.750  0.00  0.00    +0.000 Cl
BRANCH   4  11
ATOM     11  S   UNL     1     140.850 115.236 164.999  0.00  0.00    +0.000 S 
ATOM     12  O   UNL     1     139.980 114.898 164.529  0.00  0.00    +0.000 OA
ATOM     13  O   UNL     1     141.735 115.551 165.482  0.00  0.00    +0.000 OA
ATOM     14  N   UNL     1     140.685 116.216 164.658  0.00  0.00    +0.000 NA
ENDBRANCH   4  11
ENDBRANCH   1   5
BRANCH   1  15
ATOM     15  N   UNL     1     143.030 111.409 164.092  0.00  0.00    +0.000 NA
ATOM     16  C   UNL     1     143.947 111.164 164.482  0.00  0.00    +0.000 C 
BRANCH  15  17
ATOM     17  C   UNL     1     142.714 111.048 163.211  0.00  0.00    +0.000 C 
BRANCH  17  18
ATOM     18  C   UNL     1     143.081 110.144 162.872  0.00  0.00    +0.000 C 
ATOM     19  O   UNL     1     143.063 109.198 163.279  0.00  0.00    +0.000 OA
ATOM     20  C   UNL     1     143.182 110.947 162.365  0.00  0.00    +0.000 C 
ATOM     21  C   UNL     1     143.555 110.104 161.992  0.00  0.00    +0.000 C 
ATOM     22  C   UNL     1     143.533 108.574 162.635  0.00  0.00    +0.000 C 
ATOM     23  C   UNL     1     143.828 109.145 161.852  0.00  0.00    +0.000 C 
ENDBRANCH  17  18
ENDBRANCH  15  17
ENDBRANCH   1  15
TORSDOF 5
ENDMDL
MODEL 16
REMARK VINA RESULT:      -7.8     77.386     78.520
REMARK  Name = 
REMARK  5 active torsions:
REMARK  status: ('A' for Active; 'I' for Inactive)
REMARK    1  A    between atoms: S_1  and  C_4
REMARK    2  A    between atoms: S_1  and  N_6
REMARK    3  A    between atoms: S_2  and  C_3
REMARK    4  A    between atoms: N_6  and  C_7
REMARK    5  A    between atoms: C_7  and  C_13
REMARK                            x       y       z     vdW  Elec       q    Type
REMARK                         _______ _______ _______ _____ _____    ______ ____
ROOT
ATOM      1  S   UNL     1     117.497 145.978  99.046  0.00  0.00    +0.000 S 
ATOM      2  O   UNL     1     117.165 145.175  98.479  0.00  0.00    +0.000 OA
ATOM      3  O   UNL     1     117.819 146.758  99.597  0.00  0.00    +0.000 OA
ENDROOT
BRANCH   1   5
ATOM      4  C   UNL     1     115.539 147.391  97.801  0.00  0.00    +0.000 A 
ATOM      5  C   UNL     1     117.026 146.634  98.393  0.00  0.00    +0.000 A 
ATOM      6  C   UNL     1     116.010 146.735  98.453  0.00  0.00    +0.000 A 
ATOM      7  C   UNL     1     116.110 147.911  97.123  0.00  0.00    +0.000 A 
ATOM      8  C   UNL     1     117.579 147.142  97.731  0.00  0.00    +0.000 A 
ATOM      9  C   UNL     1     117.108 147.798  97.079  0.00  0.00    +0.000 A 
ATOM     10 CL   UNL     1     115.643 148.561  96.476  0.00  0.00    +0.000 Cl
BRANCH   4  11
ATOM     11  S   UNL     1     114.507 147.513  97.840  0.00  0.00    +0.000 S 
ATOM     12  O   UNL     1     114.635 148.302  98.513  0.00  0.00    +0.000 OA
ATOM     13  O   UNL     1     114.406 146.713  97.158  0.00  0.00    +0.000 OA
ATOM     14  N   UNL     1     113.463 147.624  97.867  0.00  0.00    +0.000 NA
ENDBRANCH   4  11
ENDBRANCH   1   5
BRANCH   1  15
ATOM     15  N   UNL     1     117.967 145.323  99.698  0.00  0.00    +0.000 NA
ATOM     16  C   UNL     1     117.414 144.571 100.124  0.00  0.00    +0.000 C 
BRANCH  15  17
ATOM     17  C   UNL     1     118.944 145.440  99.893  0.00  0.00    +0.000 C 
BRANCH  17  18
ATOM     18  C   UNL     1     119.611 144.707  99.601  0.00  0.00    +0.000 C 
ATOM     19  O   UNL     1     119.974 144.437  98.675  0.00  0.00    +0.000 OA
ATOM     20  C   UNL     1     119.373 144.830 100.517  0.00  0.00    +0.000 C 
ATOM     21  C   UNL     1     120.019 144.109 100.291  0.00  0.00    +0.000 C 
ATOM     22  C   UNL     1     120.614 143.663  98.806  0.00  0.00    +0.000 C 
ATOM     23  C   UNL     1     120.630 143.475  99.802  0.00  0.00    +0.000 C 
ENDBRANCH  17  18
ENDBRANCH  15  17
ENDBRANCH   1  15
TORSDOF 5
ENDMDL
MODEL 17
REMARK VINA RESULT:      -7.8     76.556     77.562
REMARK  Name = 
REMARK  5 active torsions:
REMARK  status: ('A' for Active; 'I' for Inactive)
REMARK    1  A    between atoms: S_1  and  C_4
REMARK    2  A    between atoms: S_1  and  N_6
REMARK    3  A    between atoms: S_2  and  C_3
REMARK    4  A    between atoms: N_6  and  C_7
REMARK    5  A    between atoms: C_7  and  C_13
REMARK                            x       y       z     vdW  Elec       q    Type
REMARK                         _______ _______ _______ _____ _____    ______ ____
ROOT
ATOM      1  S   UNL     1     117.049 146.989  99.275  0.00  0.00    +0.000 S 
ATOM      2  O   UNL     1     116.361 146.281  98.958  0.00  0.00    +0.000 OA
ATOM      3  O   UNL     1     117.717 147.677  99.584  0.00  0.00    +0.000 OA
ENDROOT
BRANCH   1   5
ATOM      4  C   UNL     1     118.985 145.104  99.545  0.00  0.00    +0.000 A 
ATOM      5  C   UNL     1     117.824 146.341  99.039  0.00  0.00    +0.000 A 
ATOM      6  C   UNL     1     118.209 145.751  99.781  0.00  0.00    +0.000 A 
ATOM      7  C   UNL     1     119.335 145.080  98.579  0.00  0.00    +0.000 A 
ATOM      8  C   UNL     1     118.168 146.315  98.099  0.00  0.00    +0.000 A 
ATOM      9  C   UNL     1     118.944 145.667  97.863  0.00  0.00    +0.000 A 
ATOM     10 CL   UNL     1     120.104 144.437  98.345  0.00  0.00    +0.000 Cl
BRANCH   4  11
ATOM     11  S   UNL     1     119.396 144.493 100.280  0.00  0.00    +0.000 S 
ATOM     12  O   UNL     1     118.734 143.732 100.004  0.00  0.00    +0.000 OA
ATOM     13  O   UNL     1     120.053 145.278 100.538  0.00  0.00    +0.000 OA
ATOM     14  N   UNL     1     119.821 143.888 101.026  0.00  0.00    +0.000 NA
ENDBRANCH   4  11
ENDBRANCH   1   5
BRANCH   1  15
ATOM     15  N   UNL     1     116.273 147.636  99.511  0.00  0.00    +0.000 NA
ATOM     16  C   UNL     1     115.597 147.882  98.780  0.00  0.00    +0.000 C 
BRANCH  15  17
ATOM     17  C   UNL     1     116.205 148.004 100.443  0.00  0.00    +0.000 C 
BRANCH  17  18
ATOM     18  C   UNL     1     115.313 147.918 100.957  0.00  0.00    +0.000 C 
ATOM     19  O   UNL     1     114.762 147.098 101.246  0.00  0.00    +0.000 OA
ATOM     20  C   UNL     1     115.700 148.769 100.764  0.00  0.00    +0.000 C 
ATOM     21  C   UNL     1     114.840 148.745 101.262  0.00  0.00    +0.000 C 
ATOM     22  C   UNL     1     113.940 147.433 101.735  0.00  0.00    +0.000 C 
ATOM     23  C   UNL     1     114.004 148.444 101.735  0.00  0.00    +0.000 C 
ENDBRANCH  17  18
ENDBRANCH  15  17
ENDBRANCH   1  15
TORSDOF 5
ENDMDL
MODEL 18
REMARK VINA RESULT:      -7.7     71.046     72.205
REMARK  Name = 
REMARK  5 active torsions:
REMARK  status: ('A' for Active; 'I' for Inactive)
REMARK    1  A    between atoms: S_1  and  C_4
REMARK    2  A    between atoms: S_1  and  N_6
REMARK    3  A    between atoms: S_2  and  C_3
REMARK    4  A    between atoms: N_6  and  C_7
REMARK    5  A    between atoms: C_7  and  C_13
REMARK                            x       y       z     vdW  Elec       q    Type
REMARK                         _______ _______ _______ _____ _____    ______ ____
ROOT
ATOM      1  S   UNL     1     127.513 148.412 104.224  0.00  0.00    +0.000 S 
ATOM      2  O   UNL     1     126.530 148.551 104.523  0.00  0.00    +0.000 OA
ATOM      3  O   UNL     1     128.469 148.277 103.934  0.00  0.00    +0.000 OA
ENDROOT
BRANCH   1   5
ATOM      4  C   UNL     1     127.361 151.088 103.784  0.00  0.00    +0.000 A 
ATOM      5  C   UNL     1     127.491 149.323 103.727  0.00  0.00    +0.000 A 
ATOM      6  C   UNL     1     127.383 150.177 104.281  0.00  0.00    +0.000 A 
ATOM      7  C   UNL     1     127.448 151.097 102.760  0.00  0.00    +0.000 A 
ATOM      8  C   UNL     1     127.575 149.336 102.730  0.00  0.00    +0.000 A 
ATOM      9  C   UNL     1     127.553 150.247 102.233  0.00  0.00    +0.000 A 
ATOM     10 CL   UNL     1     127.426 152.000 102.267  0.00  0.00    +0.000 Cl
BRANCH   4  11
ATOM     11  S   UNL     1     127.252 151.972 104.321  0.00  0.00    +0.000 S 
ATOM     12  O   UNL     1     126.215 151.897 104.217  0.00  0.00    +0.000 OA
ATOM     13  O   UNL     1     128.303 152.023 104.411  0.00  0.00    +0.000 OA
ATOM     14  N   UNL     1     127.160 152.865 104.864  0.00  0.00    +0.000 NA
ENDBRANCH   4  11
ENDBRANCH   1   5
BRANCH   1  15
ATOM     15  N   UNL     1     127.535 147.502 104.721  0.00  0.00    +0.000 NA
ATOM     16  C   UNL     1     126.695 146.913 104.706  0.00  0.00    +0.000 C 
BRANCH  15  17
ATOM     17  C   UNL     1     128.372 147.223 105.200  0.00  0.00    +0.000 C 
BRANCH  17  18
ATOM     18  C   UNL     1     128.363 147.140 106.229  0.00  0.00    +0.000 C 
ATOM     19  O   UNL     1     128.346 147.849 106.976  0.00  0.00    +0.000 OA
ATOM     20  C   UNL     1     128.378 146.370 105.666  0.00  0.00    +0.000 C 
ATOM     21  C   UNL     1     128.370 146.232 106.650  0.00  0.00    +0.000 C 
ATOM     22  C   UNL     1     128.343 147.363 107.865  0.00  0.00    +0.000 C 
ATOM     23  C   UNL     1     128.358 146.374 107.647  0.00  0.00    +0.000 C 
ENDBRANCH  17  18
ENDBRANCH  15  17
ENDBRANCH   1  15
TORSDOF 5
ENDMDL
MODEL 19
REMARK VINA RESULT:      -7.7     20.578     22.985
REMARK  Name = 
REMARK  5 active torsions:
REMARK  status: ('A' for Active; 'I' for Inactive)
REMARK    1  A    between atoms: S_1  and  C_4
REMARK    2  A    between atoms: S_1  and  N_6
REMARK    3  A    between atoms: S_2  and  C_3
REMARK    4  A    between atoms: N_6  and  C_7
REMARK    5  A    between atoms: C_7  and  C_13
REMARK                            x       y       z     vdW  Elec       q    Type
REMARK                         _______ _______ _______ _____ _____    ______ ____
ROOT
ATOM      1  S   UNL     1     130.626 122.043 178.995  0.00  0.00    +0.000 S 
ATOM      2  O   UNL     1     130.988 122.974 179.273  0.00  0.00    +0.000 OA
ATOM      3  O   UNL     1     130.274 121.138 178.725  0.00  0.00    +0.000 OA
ENDROOT
BRANCH   1   5
ATOM      4  C   UNL     1     130.057 121.502 181.596  0.00  0.00    +0.000 A 
ATOM      5  C   UNL     1     130.733 121.709 179.972  0.00  0.00    +0.000 A 
ATOM      6  C   UNL     1     129.950 121.835 180.619  0.00  0.00    +0.000 A 
ATOM      7  C   UNL     1     130.942 121.060 181.875  0.00  0.00    +0.000 A 
ATOM      8  C   UNL     1     131.594 121.279 180.248  0.00  0.00    +0.000 A 
ATOM      9  C   UNL     1     131.701 120.945 181.225  0.00  0.00    +0.000 A 
ATOM     10 CL   UNL     1     131.048 120.730 182.843  0.00  0.00    +0.000 Cl
BRANCH   4  11
ATOM     11  S   UNL     1     129.277 121.617 182.274  0.00  0.00    +0.000 S 
ATOM     12  O   UNL     1     129.717 122.501 182.617  0.00  0.00    +0.000 OA
ATOM     13  O   UNL     1     128.854 120.720 181.909  0.00  0.00    +0.000 OA
ATOM     14  N   UNL     1     128.483 121.718 182.953  0.00  0.00    +0.000 NA
ENDBRANCH   4  11
ENDBRANCH   1   5
BRANCH   1  15
ATOM     15  N   UNL     1     130.519 122.376 178.019  0.00  0.00    +0.000 NA
ATOM     16  C   UNL     1     130.056 123.277 177.854  0.00  0.00    +0.000 C 
BRANCH  15  17
ATOM     17  C   UNL     1     130.868 121.812 177.266  0.00  0.00    +0.000 C 
BRANCH  17  18
ATOM     18  C   UNL     1     131.635 122.173 176.676  0.00  0.00    +0.000 C 
ATOM     19  O   UNL     1     132.613 122.417 176.893  0.00  0.00    +0.000 OA
ATOM     20  C   UNL     1     130.770 121.995 176.316  0.00  0.00    +0.000 C 
ATOM     21  C   UNL     1     131.472 122.341 175.704  0.00  0.00    +0.000 C 
ATOM     22  C   UNL     1     133.049 122.739 176.037  0.00  0.00    +0.000 C 
ATOM     23  C   UNL     1     132.337 122.686 175.319  0.00  0.00    +0.000 C 
ENDBRANCH  17  18
ENDBRANCH  15  17
ENDBRANCH   1  15
TORSDOF 5
ENDMDL
MODEL 20
REMARK VINA RESULT:      -7.5     77.065     78.213
REMARK  Name = 
REMARK  5 active torsions:
REMARK  status: ('A' for Active; 'I' for Inactive)
REMARK    1  A    between atoms: S_1  and  C_4
REMARK    2  A    between atoms: S_1  and  N_6
REMARK    3  A    between atoms: S_2  and  C_3
REMARK    4  A    between atoms: N_6  and  C_7
REMARK    5  A    between atoms: C_7  and  C_13
REMARK                            x       y       z     vdW  Elec       q    Type
REMARK                         _______ _______ _______ _____ _____    ______ ____
ROOT
ATOM      1  S   UNL     1     117.319 146.579  99.300  0.00  0.00    +0.000 S 
ATOM      2  O   UNL     1     116.882 145.803  98.767  0.00  0.00    +0.000 OA
ATOM      3  O   UNL     1     117.743 147.332  99.818  0.00  0.00    +0.000 OA
ENDROOT
BRANCH   1   5
ATOM      4  C   UNL     1     114.845 147.698  99.227  0.00  0.00    +0.000 A 
ATOM      5  C   UNL     1     116.379 146.898  99.604  0.00  0.00    +0.000 A 
ATOM      6  C   UNL     1     115.784 147.378  98.923  0.00  0.00    +0.000 A 
ATOM      7  C   UNL     1     114.549 147.521 100.195  0.00  0.00    +0.000 A 
ATOM      8  C   UNL     1     116.088 146.728 100.547  0.00  0.00    +0.000 A 
ATOM      9  C   UNL     1     115.148 147.048 100.850  0.00  0.00    +0.000 A 
ATOM     10 CL   UNL     1     113.618 147.838 100.496  0.00  0.00    +0.000 Cl
BRANCH   4  11
ATOM     11  S   UNL     1     114.219 148.188  98.556  0.00  0.00    +0.000 S 
ATOM     12  O   UNL     1     113.823 147.266  98.265  0.00  0.00    +0.000 OA
ATOM     13  O   UNL     1     114.636 149.107  98.868  0.00  0.00    +0.000 OA
ATOM     14  N   UNL     1     113.594 148.698  97.883  0.00  0.00    +0.000 NA
ENDBRANCH   4  11
ENDBRANCH   1   5
BRANCH   1  15
ATOM     15  N   UNL     1     118.257 146.259  98.997  0.00  0.00    +0.000 NA
ATOM     16  C   UNL     1     118.935 146.959  98.676  0.00  0.00    +0.000 C 
BRANCH  15  17
ATOM     17  C   UNL     1     118.476 145.280  99.025  0.00  0.00    +0.000 C 
BRANCH  17  18
ATOM     18  C   UNL     1     119.186 144.939  99.694  0.00  0.00    +0.000 C 
ATOM     19  O   UNL     1     119.171 144.836 100.719  0.00  0.00    +0.000 OA
ATOM     20  C   UNL     1     119.358 144.972  98.756  0.00  0.00    +0.000 C 
ATOM     21  C   UNL     1     120.076 144.635  99.355  0.00  0.00    +0.000 C 
ATOM     22  C   UNL     1     120.069 144.464 101.006  0.00  0.00    +0.000 C 
ATOM     23  C   UNL     1     120.611 144.346 100.158  0.00  0.00    +0.000 C 
ENDBRANCH  17  18
ENDBRANCH  15  17
ENDBRANCH   1  15
TORSDOF 5
ENDMDL
