MODEL 1
REMARK VINA RESULT:      -8.5      0.000      0.000
REMARK  Name = 
REMARK  10 active torsions:
REMARK  status: ('A' for Active; 'I' for Inactive)
REMARK    1  A    between atoms: C_5  and  C_7
REMARK    2  A    between atoms: C_7  and  C_15
REMARK    3  A    between atoms: C_10  and  O_29
REMARK    4  A    between atoms: C_10  and  O_30
REMARK    5  A    between atoms: C_13  and  C_18
REMARK    6  A    between atoms: C_15  and  O_29
REMARK    7  A    between atoms: C_16  and  C_20
REMARK    8  A    between atoms: C_17  and  C_21
REMARK    9  A    between atoms: C_20  and  O_28
REMARK   10  A    between atoms: C_21  and  O_30
REMARK                            x       y       z     vdW  Elec       q    Type
REMARK                         _______ _______ _______ _____ _____    ______ ____
ROOT
ATOM      1  C   UNL     1     153.644 130.964 141.357  0.00  0.00    +0.000 C 
ATOM      2  C   UNL     1     153.845 129.960 138.689  0.00  0.00    +0.000 C 
ATOM      3  C   UNL     1     153.711 131.099 140.546  0.00  0.00    +0.000 C 
ATOM      4  C   UNL     1     153.811 130.597 139.212  0.00  0.00    +0.000 C 
ATOM      5  C   UNL     1     153.744 131.871 140.258  0.00  0.00    +0.000 C 
ATOM      6  C   UNL     1     153.844 131.369 138.924  0.00  0.00    +0.000 C 
ATOM      7  C   UNL     1     153.810 132.007 139.448  0.00  0.00    +0.000 C 
ATOM      8  N   UNL     1     153.745 130.462 140.024  0.00  0.00    +0.000 NA
ENDROOT
BRANCH   7  12
ATOM      9  C   UNL     1     153.180 133.948 138.672  0.00  0.00    +0.000 A 
ATOM     10  C   UNL     1     153.147 133.176 138.960  0.00  0.00    +0.000 A 
ATOM     11  C   UNL     1     153.909 134.324 138.584  0.00  0.00    +0.000 A 
ATOM     12  C   UNL     1     153.843 132.779 139.160  0.00  0.00    +0.000 A 
ATOM     13  C   UNL     1     154.604 133.929 138.783  0.00  0.00    +0.000 A 
ATOM     14  C   UNL     1     154.571 133.157 139.071  0.00  0.00    +0.000 A 
ATOM     15 CL   UNL     1     155.333 134.305 138.695  0.00  0.00    +0.000 Cl
ATOM     16 CL   UNL     1     155.267 132.760 139.271  0.00  0.00    +0.000 Cl
ENDBRANCH   7  12
BRANCH   5  17
ATOM     17  C   UNL     1     153.710 132.508 140.781  0.00  0.00    +0.000 C 
ATOM     18  O   UNL     1     153.916 133.248 141.082  0.00  0.00    +0.000 OA
BRANCH  17  20
ATOM     19  C   UNL     1     153.171 133.117 141.957  0.00  0.00    +0.000 C 
ATOM     20  O   UNL     1     153.187 132.490 141.420  0.00  0.00    +0.000 OA
ENDBRANCH  17  20
ENDBRANCH   5  17
BRANCH   6  21
ATOM     21  C   UNL     1     153.911 131.505 138.113  0.00  0.00    +0.000 C 
ATOM     22  O   UNL     1     154.656 131.567 137.765  0.00  0.00    +0.000 OA
BRANCH  21  23
ATOM     23  O   UNL     1     153.231 131.579 137.651  0.00  0.00    +0.000 OA
BRANCH  23  24
ATOM     24  C   UNL     1     153.218 131.271 136.886  0.00  0.00    +0.000 C 
BRANCH  24  25
ATOM     25  O   UNL     1     152.619 131.493 136.362  0.00  0.00    +0.000 OA
BRANCH  25  26
ATOM     26  C   UNL     1     152.382 130.976 135.765  0.00  0.00    +0.000 C 
ATOM     27  O   UNL     1     152.899 130.792 135.148  0.00  0.00    +0.000 OA
BRANCH  26  28
ATOM     28  C   UNL     1     151.627 130.642 135.785  0.00  0.00    +0.000 C 
BRANCH  28  30
ATOM     29  C   UNL     1     150.402 130.315 135.125  0.00  0.00    +0.000 C 
ATOM     30  C   UNL     1     151.171 130.615 135.098  0.00  0.00    +0.000 C 
ENDBRANCH  28  30
ENDBRANCH  26  28
ENDBRANCH  25  26
ENDBRANCH  24  25
ENDBRANCH  23  24
ENDBRANCH  21  23
ENDBRANCH   6  21
TORSDOF 10
ENDMDL
MODEL 2
REMARK VINA RESULT:      -7.8     55.423     57.157
REMARK  Name = 
REMARK  10 active torsions:
REMARK  status: ('A' for Active; 'I' for Inactive)
REMARK    1  A    between atoms: C_5  and  C_7
REMARK    2  A    between atoms: C_7  and  C_15
REMARK    3  A    between atoms: C_10  and  O_29
REMARK    4  A    between atoms: C_10  and  O_30
REMARK    5  A    between atoms: C_13  and  C_18
REMARK    6  A    between atoms: C_15  and  O_29
REMARK    7  A    between atoms: C_16  and  C_20
REMARK    8  A    between atoms: C_17  and  C_21
REMARK    9  A    between atoms: C_20  and  O_28
REMARK   10  A    between atoms: C_21  and  O_30
REMARK                            x       y       z     vdW  Elec       q    Type
REMARK                         _______ _______ _______ _____ _____    ______ ____
ROOT
ATOM      1  C   UNL     1      98.784 138.885 136.100  0.00  0.00    +0.000 C 
ATOM      2  C   UNL     1      97.720 137.466 138.339  0.00  0.00    +0.000 C 
ATOM      3  C   UNL     1      98.305 138.288 136.404  0.00  0.00    +0.000 C 
ATOM      4  C   UNL     1      97.773 137.578 137.524  0.00  0.00    +0.000 C 
ATOM      5  C   UNL     1      97.877 137.802 135.892  0.00  0.00    +0.000 C 
ATOM      6  C   UNL     1      97.345 137.092 137.013  0.00  0.00    +0.000 C 
ATOM      7  C   UNL     1      97.397 137.204 136.196  0.00  0.00    +0.000 C 
ATOM      8  N   UNL     1      98.252 138.176 137.219  0.00  0.00    +0.000 NA
ENDROOT
BRANCH   7  12
ATOM      9  C   UNL     1      95.774 136.440 134.951  0.00  0.00    +0.000 A 
ATOM     10  C   UNL     1      96.202 136.926 135.462  0.00  0.00    +0.000 A 
ATOM     11  C   UNL     1      96.114 135.746 134.662  0.00  0.00    +0.000 A 
ATOM     12  C   UNL     1      96.969 136.718 135.685  0.00  0.00    +0.000 A 
ATOM     13  C   UNL     1      96.880 135.538 134.884  0.00  0.00    +0.000 A 
ATOM     14  C   UNL     1      97.308 136.024 135.395  0.00  0.00    +0.000 A 
ATOM     15 CL   UNL     1      97.219 134.844 134.595  0.00  0.00    +0.000 Cl
ATOM     16 CL   UNL     1      98.074 135.816 135.618  0.00  0.00    +0.000 Cl
ENDBRANCH   7  12
BRANCH   5  17
ATOM     17  C   UNL     1      97.929 137.914 135.077  0.00  0.00    +0.000 C 
ATOM     18  O   UNL     1      98.057 137.693 134.293  0.00  0.00    +0.000 OA
BRANCH  17  20
ATOM     19  C   UNL     1      97.995 138.817 133.971  0.00  0.00    +0.000 C 
ATOM     20  O   UNL     1      97.783 138.659 134.753  0.00  0.00    +0.000 OA
ENDBRANCH  17  20
ENDBRANCH   5  17
BRANCH   6  21
ATOM     21  C   UNL     1      96.865 136.494 137.316  0.00  0.00    +0.000 C 
ATOM     22  O   UNL     1      97.164 135.730 137.407  0.00  0.00    +0.000 OA
BRANCH  21  23
ATOM     23  O   UNL     1      96.085 136.660 137.529  0.00  0.00    +0.000 OA
BRANCH  23  24
ATOM     24  C   UNL     1      95.735 136.256 138.158  0.00  0.00    +0.000 C 
BRANCH  24  25
ATOM     25  O   UNL     1      94.933 136.367 138.323  0.00  0.00    +0.000 OA
BRANCH  25  26
ATOM     26  C   UNL     1      94.620 136.098 139.038  0.00  0.00    +0.000 C 
ATOM     27  O   UNL     1      94.616 135.292 139.210  0.00  0.00    +0.000 OA
BRANCH  26  28
ATOM     28  C   UNL     1      94.310 136.638 139.580  0.00  0.00    +0.000 C 
BRANCH  28  30
ATOM     29  C   UNL     1      93.421 136.936 140.659  0.00  0.00    +0.000 C 
ATOM     30  C   UNL     1      93.709 136.406 140.095  0.00  0.00    +0.000 C 
ENDBRANCH  28  30
ENDBRANCH  26  28
ENDBRANCH  25  26
ENDBRANCH  24  25
ENDBRANCH  23  24
ENDBRANCH  21  23
ENDBRANCH   6  21
TORSDOF 10
ENDMDL
MODEL 3
REMARK VINA RESULT:      -7.6      2.313      3.026
REMARK  Name = 
REMARK  10 active torsions:
REMARK  status: ('A' for Active; 'I' for Inactive)
REMARK    1  A    between atoms: C_5  and  C_7
REMARK    2  A    between atoms: C_7  and  C_15
REMARK    3  A    between atoms: C_10  and  O_29
REMARK    4  A    between atoms: C_10  and  O_30
REMARK    5  A    between atoms: C_13  and  C_18
REMARK    6  A    between atoms: C_15  and  O_29
REMARK    7  A    between atoms: C_16  and  C_20
REMARK    8  A    between atoms: C_17  and  C_21
REMARK    9  A    between atoms: C_20  and  O_28
REMARK   10  A    between atoms: C_21  and  O_30
REMARK                            x       y       z     vdW  Elec       q    Type
REMARK                         _______ _______ _______ _____ _____    ______ ____
ROOT
ATOM      1  C   UNL     1     153.882 130.110 138.028  0.00  0.00    +0.000 C 
ATOM      2  C   UNL     1     152.762 131.056 135.576  0.00  0.00    +0.000 C 
ATOM      3  C   UNL     1     153.607 130.732 137.562  0.00  0.00    +0.000 C 
ATOM      4  C   UNL     1     153.047 131.205 136.336  0.00  0.00    +0.000 C 
ATOM      5  C   UNL     1     153.617 131.503 137.855  0.00  0.00    +0.000 C 
ATOM      6  C   UNL     1     153.056 131.976 136.629  0.00  0.00    +0.000 C 
ATOM      7  C   UNL     1     153.341 132.125 137.389  0.00  0.00    +0.000 C 
ATOM      8  N   UNL     1     153.322 130.583 136.803  0.00  0.00    +0.000 NA
ENDROOT
BRANCH   7  12
ATOM      9  C   UNL     1     152.686 133.981 138.334  0.00  0.00    +0.000 A 
ATOM     10  C   UNL     1     152.677 133.210 138.041  0.00  0.00    +0.000 A 
ATOM     11  C   UNL     1     153.370 134.439 138.268  0.00  0.00    +0.000 A 
ATOM     12  C   UNL     1     153.351 132.896 137.682  0.00  0.00    +0.000 A 
ATOM     13  C   UNL     1     154.043 134.126 137.910  0.00  0.00    +0.000 A 
ATOM     14  C   UNL     1     154.034 133.354 137.617  0.00  0.00    +0.000 A 
ATOM     15 CL   UNL     1     154.726 134.583 137.845  0.00  0.00    +0.000 Cl
ATOM     16 CL   UNL     1     154.707 133.041 137.259  0.00  0.00    +0.000 Cl
ENDBRANCH   7  12
BRANCH   5  17
ATOM     17  C   UNL     1     153.901 131.652 138.615  0.00  0.00    +0.000 C 
ATOM     18  O   UNL     1     154.391 131.996 139.182  0.00  0.00    +0.000 OA
BRANCH  17  20
ATOM     19  C   UNL     1     153.948 131.263 139.990  0.00  0.00    +0.000 C 
ATOM     20  O   UNL     1     153.552 131.284 139.266  0.00  0.00    +0.000 OA
ENDBRANCH  17  20
ENDBRANCH   5  17
BRANCH   6  21
ATOM     21  C   UNL     1     152.781 132.598 136.163  0.00  0.00    +0.000 C 
ATOM     22  O   UNL     1     152.045 132.937 136.318  0.00  0.00    +0.000 OA
BRANCH  21  23
ATOM     23  O   UNL     1     153.243 132.883 135.540  0.00  0.00    +0.000 OA
BRANCH  23  24
ATOM     24  C   UNL     1     152.886 133.267 134.904  0.00  0.00    +0.000 C 
BRANCH  24  25
ATOM     25  O   UNL     1     153.351 133.641 134.334  0.00  0.00    +0.000 OA
BRANCH  25  26
ATOM     26  C   UNL     1     152.994 134.016 133.692  0.00  0.00    +0.000 C 
ATOM     27  O   UNL     1     152.315 133.694 133.351  0.00  0.00    +0.000 OA
BRANCH  26  28
ATOM     28  C   UNL     1     153.316 134.714 133.390  0.00  0.00    +0.000 C 
BRANCH  28  30
ATOM     29  C   UNL     1     153.851 135.454 132.291  0.00  0.00    +0.000 C 
ATOM     30  C   UNL     1     153.483 134.776 132.585  0.00  0.00    +0.000 C 
ENDBRANCH  28  30
ENDBRANCH  26  28
ENDBRANCH  25  26
ENDBRANCH  24  25
ENDBRANCH  23  24
ENDBRANCH  21  23
ENDBRANCH   6  21
TORSDOF 10
ENDMDL
MODEL 4
REMARK VINA RESULT:      -7.5     18.078     19.850
REMARK  Name = 
REMARK  10 active torsions:
REMARK  status: ('A' for Active; 'I' for Inactive)
REMARK    1  A    between atoms: C_5  and  C_7
REMARK    2  A    between atoms: C_7  and  C_15
REMARK    3  A    between atoms: C_10  and  O_29
REMARK    4  A    between atoms: C_10  and  O_30
REMARK    5  A    between atoms: C_13  and  C_18
REMARK    6  A    between atoms: C_15  and  O_29
REMARK    7  A    between atoms: C_16  and  C_20
REMARK    8  A    between atoms: C_17  and  C_21
REMARK    9  A    between atoms: C_20  and  O_28
REMARK   10  A    between atoms: C_21  and  O_30
REMARK                            x       y       z     vdW  Elec       q    Type
REMARK                         _______ _______ _______ _____ _____    ______ ____
ROOT
ATOM      1  C   UNL     1     156.576 114.777 127.670  0.00  0.00    +0.000 C 
ATOM      2  C   UNL     1     154.907 113.058 129.227  0.00  0.00    +0.000 C 
ATOM      3  C   UNL     1     155.887 114.654 128.107  0.00  0.00    +0.000 C 
ATOM      4  C   UNL     1     155.053 113.794 128.885  0.00  0.00    +0.000 C 
ATOM      5  C   UNL     1     155.344 115.267 128.201  0.00  0.00    +0.000 C 
ATOM      6  C   UNL     1     154.509 114.408 128.980  0.00  0.00    +0.000 C 
ATOM      7  C   UNL     1     154.655 115.145 128.637  0.00  0.00    +0.000 C 
ATOM      8  N   UNL     1     155.742 113.918 128.449  0.00  0.00    +0.000 NA
ENDROOT
BRANCH   7  12
ATOM      9  C   UNL     1     152.952 116.465 128.283  0.00  0.00    +0.000 A 
ATOM     10  C   UNL     1     153.496 115.852 128.189  0.00  0.00    +0.000 A 
ATOM     11  C   UNL     1     153.024 116.985 128.920  0.00  0.00    +0.000 A 
ATOM     12  C   UNL     1     154.111 115.758 128.731  0.00  0.00    +0.000 A 
ATOM     13  C   UNL     1     153.638 116.892 129.462  0.00  0.00    +0.000 A 
ATOM     14  C   UNL     1     154.182 116.278 129.368  0.00  0.00    +0.000 A 
ATOM     15 CL   UNL     1     153.709 117.411 130.098  0.00  0.00    +0.000 Cl
ATOM     16 CL   UNL     1     154.796 116.184 129.910  0.00  0.00    +0.000 Cl
ENDBRANCH   7  12
BRANCH   5  17
ATOM     17  C   UNL     1     155.489 116.003 127.859  0.00  0.00    +0.000 C 
ATOM     18  O   UNL     1     155.590 116.822 127.846  0.00  0.00    +0.000 OA
BRANCH  17  20
ATOM     19  C   UNL     1     155.999 116.731 126.739  0.00  0.00    +0.000 C 
ATOM     20  O   UNL     1     155.629 116.061 127.047  0.00  0.00    +0.000 OA
ENDBRANCH  17  20
ENDBRANCH   5  17
BRANCH   6  21
ATOM     21  C   UNL     1     153.820 114.285 129.416  0.00  0.00    +0.000 C 
ATOM     22  O   UNL     1     153.805 114.460 130.222  0.00  0.00    +0.000 OA
BRANCH  21  23
ATOM     23  O   UNL     1     153.145 113.988 129.045  0.00  0.00    +0.000 OA
BRANCH  23  24
ATOM     24  C   UNL     1     152.576 113.585 129.486  0.00  0.00    +0.000 C 
BRANCH  24  25
ATOM     25  O   UNL     1     151.859 113.370 129.137  0.00  0.00    +0.000 OA
BRANCH  25  26
ATOM     26  C   UNL     1     151.228 113.128 129.609  0.00  0.00    +0.000 C 
ATOM     27  O   UNL     1     151.291 112.442 130.064  0.00  0.00    +0.000 OA
BRANCH  26  28
ATOM     28  C   UNL     1     150.532 113.572 129.627  0.00  0.00    +0.000 C 
BRANCH  28  30
ATOM     29  C   UNL     1     149.108 113.640 129.523  0.00  0.00    +0.000 C 
ATOM     30  C   UNL     1     149.801 113.194 129.576  0.00  0.00    +0.000 C 
ENDBRANCH  28  30
ENDBRANCH  26  28
ENDBRANCH  25  26
ENDBRANCH  24  25
ENDBRANCH  23  24
ENDBRANCH  21  23
ENDBRANCH   6  21
TORSDOF 10
ENDMDL
MODEL 5
REMARK VINA RESULT:      -7.3     60.705     62.184
REMARK  Name = 
REMARK  10 active torsions:
REMARK  status: ('A' for Active; 'I' for Inactive)
REMARK    1  A    between atoms: C_5  and  C_7
REMARK    2  A    between atoms: C_7  and  C_15
REMARK    3  A    between atoms: C_10  and  O_29
REMARK    4  A    between atoms: C_10  and  O_30
REMARK    5  A    between atoms: C_13  and  C_18
REMARK    6  A    between atoms: C_15  and  O_29
REMARK    7  A    between atoms: C_16  and  C_20
REMARK    8  A    between atoms: C_17  and  C_21
REMARK    9  A    between atoms: C_20  and  O_28
REMARK   10  A    between atoms: C_21  and  O_30
REMARK                            x       y       z     vdW  Elec       q    Type
REMARK                         _______ _______ _______ _____ _____    ______ ____
ROOT
ATOM      1  C   UNL     1      96.223 136.183 169.065  0.00  0.00    +0.000 C 
ATOM      2  C   UNL     1      96.692 135.734 166.283  0.00  0.00    +0.000 C 
ATOM      3  C   UNL     1      96.670 135.842 168.462  0.00  0.00    +0.000 C 
ATOM      4  C   UNL     1      96.905 135.618 167.071  0.00  0.00    +0.000 C 
ATOM      5  C   UNL     1      97.332 135.385 168.647  0.00  0.00    +0.000 C 
ATOM      6  C   UNL     1      97.566 135.161 167.256  0.00  0.00    +0.000 C 
ATOM      7  C   UNL     1      97.780 135.044 168.045  0.00  0.00    +0.000 C 
ATOM      8  N   UNL     1      96.457 135.959 167.674  0.00  0.00    +0.000 NA
ENDROOT
BRANCH   7  12
ATOM      9  C   UNL     1      99.032 133.310 168.481  0.00  0.00    +0.000 A 
ATOM     10  C   UNL     1      98.371 133.767 168.296  0.00  0.00    +0.000 A 
ATOM     11  C   UNL     1      99.764 133.673 168.600  0.00  0.00    +0.000 A 
ATOM     12  C   UNL     1      98.441 134.587 168.230  0.00  0.00    +0.000 A 
ATOM     13  C   UNL     1      99.834 134.491 168.534  0.00  0.00    +0.000 A 
ATOM     14  C   UNL     1      99.173 134.949 168.349  0.00  0.00    +0.000 A 
ATOM     15 CL   UNL     1     100.565 134.853 168.653  0.00  0.00    +0.000 Cl
ATOM     16 CL   UNL     1      99.243 135.768 168.283  0.00  0.00    +0.000 Cl
ENDBRANCH   7  12
BRANCH   5  17
ATOM     17  C   UNL     1      97.545 135.268 169.436  0.00  0.00    +0.000 C 
ATOM     18  O   UNL     1      98.045 135.284 170.091  0.00  0.00    +0.000 OA
BRANCH  17  20
ATOM     19  C   UNL     1      97.126 135.022 170.780  0.00  0.00    +0.000 C 
ATOM     20  O   UNL     1      97.001 134.949 169.967  0.00  0.00    +0.000 OA
ENDBRANCH  17  20
ENDBRANCH   5  17
BRANCH   6  21
ATOM     21  C   UNL     1      98.015 134.820 166.653  0.00  0.00    +0.000 C 
ATOM     22  O   UNL     1      97.934 134.017 166.482  0.00  0.00    +0.000 OA
BRANCH  21  23
ATOM     23  O   UNL     1      98.545 135.283 166.221  0.00  0.00    +0.000 OA
BRANCH  23  24
ATOM     24  C   UNL     1      98.740 135.072 165.448  0.00  0.00    +0.000 C 
BRANCH  24  25
ATOM     25  O   UNL     1      99.435 135.359 165.106  0.00  0.00    +0.000 OA
BRANCH  25  26
ATOM     26  C   UNL     1      99.572 135.252 164.300  0.00  0.00    +0.000 C 
ATOM     27  O   UNL     1      98.995 135.468 163.751  0.00  0.00    +0.000 OA
BRANCH  26  28
ATOM     28  C   UNL     1     100.286 134.929 164.042  0.00  0.00    +0.000 C 
BRANCH  28  30
ATOM     29  C   UNL     1     101.278 134.795 163.022  0.00  0.00    +0.000 C 
ATOM     30  C   UNL     1     100.630 135.195 163.341  0.00  0.00    +0.000 C 
ENDBRANCH  28  30
ENDBRANCH  26  28
ENDBRANCH  25  26
ENDBRANCH  24  25
ENDBRANCH  23  24
ENDBRANCH  21  23
ENDBRANCH   6  21
TORSDOF 10
ENDMDL
MODEL 6
REMARK VINA RESULT:      -7.3     70.047     71.712
REMARK  Name = 
REMARK  10 active torsions:
REMARK  status: ('A' for Active; 'I' for Inactive)
REMARK    1  A    between atoms: C_5  and  C_7
REMARK    2  A    between atoms: C_7  and  C_15
REMARK    3  A    between atoms: C_10  and  O_29
REMARK    4  A    between atoms: C_10  and  O_30
REMARK    5  A    between atoms: C_13  and  C_18
REMARK    6  A    between atoms: C_15  and  O_29
REMARK    7  A    between atoms: C_16  and  C_20
REMARK    8  A    between atoms: C_17  and  C_21
REMARK    9  A    between atoms: C_20  and  O_28
REMARK   10  A    between atoms: C_21  and  O_30
REMARK                            x       y       z     vdW  Elec       q    Type
REMARK                         _______ _______ _______ _____ _____    ______ ____
ROOT
ATOM      1  C   UNL     1     105.678 120.484 188.258  0.00  0.00    +0.000 C 
ATOM      2  C   UNL     1     106.797 122.303 190.156  0.00  0.00    +0.000 C 
ATOM      3  C   UNL     1     105.944 120.645 189.021  0.00  0.00    +0.000 C 
ATOM      4  C   UNL     1     106.504 121.555 189.971  0.00  0.00    +0.000 C 
ATOM      5  C   UNL     1     105.917 120.058 189.600  0.00  0.00    +0.000 C 
ATOM      6  C   UNL     1     106.477 120.968 190.549  0.00  0.00    +0.000 C 
ATOM      7  C   UNL     1     106.183 120.219 190.364  0.00  0.00    +0.000 C 
ATOM      8  N   UNL     1     106.238 121.393 189.207  0.00  0.00    +0.000 NA
ENDROOT
BRANCH   7  12
ATOM      9  C   UNL     1     105.447 118.943 191.976  0.00  0.00    +0.000 A 
ATOM     10  C   UNL     1     105.474 119.530 191.397  0.00  0.00    +0.000 A 
ATOM     11  C   UNL     1     106.102 118.456 192.100  0.00  0.00    +0.000 A 
ATOM     12  C   UNL     1     106.156 119.631 190.943  0.00  0.00    +0.000 A 
ATOM     13  C   UNL     1     106.783 118.557 191.647  0.00  0.00    +0.000 A 
ATOM     14  C   UNL     1     106.810 119.144 191.068  0.00  0.00    +0.000 A 
ATOM     15 CL   UNL     1     107.437 118.071 191.771  0.00  0.00    +0.000 Cl
ATOM     16 CL   UNL     1     107.491 119.246 190.614  0.00  0.00    +0.000 Cl
ENDBRANCH   7  12
BRANCH   5  17
ATOM     17  C   UNL     1     105.624 119.309 189.415  0.00  0.00    +0.000 C 
ATOM     18  O   UNL     1     105.188 118.620 189.535  0.00  0.00    +0.000 OA
BRANCH  17  20
ATOM     19  C   UNL     1     105.406 118.302 188.424  0.00  0.00    +0.000 C 
ATOM     20  O   UNL     1     105.839 118.946 188.706  0.00  0.00    +0.000 OA
ENDBRANCH  17  20
ENDBRANCH   5  17
BRANCH   6  21
ATOM     21  C   UNL     1     106.743 121.128 191.314  0.00  0.00    +0.000 C 
ATOM     22  O   UNL     1     107.522 120.956 191.525  0.00  0.00    +0.000 OA
BRANCH  21  23
ATOM     23  O   UNL     1     106.229 121.462 191.867  0.00  0.00    +0.000 OA
BRANCH  23  24
ATOM     24  C   UNL     1     106.519 121.984 192.436  0.00  0.00    +0.000 C 
BRANCH  24  25
ATOM     25  O   UNL     1     106.043 122.205 193.074  0.00  0.00    +0.000 OA
BRANCH  25  26
ATOM     26  C   UNL     1     106.204 122.901 193.486  0.00  0.00    +0.000 C 
ATOM     27  O   UNL     1     106.973 123.064 193.738  0.00  0.00    +0.000 OA
BRANCH  26  28
ATOM     28  C   UNL     1     105.595 123.435 193.646  0.00  0.00    +0.000 C 
BRANCH  28  30
ATOM     29  C   UNL     1     105.119 124.597 194.328  0.00  0.00    +0.000 C 
ATOM     30  C   UNL     1     105.703 124.025 194.213  0.00  0.00    +0.000 C 
ENDBRANCH  28  30
ENDBRANCH  26  28
ENDBRANCH  25  26
ENDBRANCH  24  25
ENDBRANCH  23  24
ENDBRANCH  21  23
ENDBRANCH   6  21
TORSDOF 10
ENDMDL
MODEL 7
REMARK VINA RESULT:      -7.3     53.873     56.527
REMARK  Name = 
REMARK  10 active torsions:
REMARK  status: ('A' for Active; 'I' for Inactive)
REMARK    1  A    between atoms: C_5  and  C_7
REMARK    2  A    between atoms: C_7  and  C_15
REMARK    3  A    between atoms: C_10  and  O_29
REMARK    4  A    between atoms: C_10  and  O_30
REMARK    5  A    between atoms: C_13  and  C_18
REMARK    6  A    between atoms: C_15  and  O_29
REMARK    7  A    between atoms: C_16  and  C_20
REMARK    8  A    between atoms: C_17  and  C_21
REMARK    9  A    between atoms: C_20  and  O_28
REMARK   10  A    between atoms: C_21  and  O_30
REMARK                            x       y       z     vdW  Elec       q    Type
REMARK                         _______ _______ _______ _____ _____    ______ ____
ROOT
ATOM      1  C   UNL     1     135.880 152.382  92.394  0.00  0.00    +0.000 C 
ATOM      2  C   UNL     1     134.472 151.725  89.997  0.00  0.00    +0.000 C 
ATOM      3  C   UNL     1     135.466 152.618  91.722  0.00  0.00    +0.000 C 
ATOM      4  C   UNL     1     134.762 152.290  90.523  0.00  0.00    +0.000 C 
ATOM      5  C   UNL     1     135.342 153.421  91.575  0.00  0.00    +0.000 C 
ATOM      6  C   UNL     1     134.638 153.092  90.376  0.00  0.00    +0.000 C 
ATOM      7  C   UNL     1     134.928 153.658  90.903  0.00  0.00    +0.000 C 
ATOM      8  N   UNL     1     135.177 152.054  91.196  0.00  0.00    +0.000 NA
ENDROOT
BRANCH   7  12
ATOM      9  C   UNL     1     135.226 155.691  90.164  0.00  0.00    +0.000 A 
ATOM     10  C   UNL     1     135.351 154.889  90.310  0.00  0.00    +0.000 A 
ATOM     11  C   UNL     1     134.555 156.065  90.463  0.00  0.00    +0.000 A 
ATOM     12  C   UNL     1     134.803 154.461  90.756  0.00  0.00    +0.000 A 
ATOM     13  C   UNL     1     134.008 155.638  90.909  0.00  0.00    +0.000 A 
ATOM     14  C   UNL     1     134.132 154.836  91.055  0.00  0.00    +0.000 A 
ATOM     15 CL   UNL     1     133.337 156.012  91.208  0.00  0.00    +0.000 Cl
ATOM     16 CL   UNL     1     133.586 154.408  91.501  0.00  0.00    +0.000 Cl
ENDBRANCH   7  12
BRANCH   5  17
ATOM     17  C   UNL     1     135.632 153.986  92.101  0.00  0.00    +0.000 C 
ATOM     18  O   UNL     1     135.591 154.637  92.607  0.00  0.00    +0.000 OA
BRANCH  17  20
ATOM     19  C   UNL     1     136.690 154.432  92.954  0.00  0.00    +0.000 C 
ATOM     20  O   UNL     1     136.430 153.983  92.311  0.00  0.00    +0.000 OA
ENDBRANCH  17  20
ENDBRANCH   5  17
BRANCH   6  21
ATOM     21  C   UNL     1     134.224 153.330  89.704  0.00  0.00    +0.000 C 
ATOM     22  O   UNL     1     133.406 153.435  89.738  0.00  0.00    +0.000 OA
BRANCH  21  23
ATOM     23  O   UNL     1     134.628 153.463  88.996  0.00  0.00    +0.000 OA
BRANCH  23  24
ATOM     24  C   UNL     1     134.233 153.387  88.276  0.00  0.00    +0.000 C 
BRANCH  24  25
ATOM     25  O   UNL     1     134.663 153.278  87.579  0.00  0.00    +0.000 OA
BRANCH  25  26
ATOM     26  C   UNL     1     134.384 153.591  86.869  0.00  0.00    +0.000 C 
ATOM     27  O   UNL     1     134.440 154.401  86.725  0.00  0.00    +0.000 OA
BRANCH  26  28
ATOM     28  C   UNL     1     134.047 153.093  86.303  0.00  0.00    +0.000 C 
BRANCH  28  30
ATOM     29  C   UNL     1     133.981 152.647  84.947  0.00  0.00    +0.000 C 
ATOM     30  C   UNL     1     134.198 153.218  85.502  0.00  0.00    +0.000 C 
ENDBRANCH  28  30
ENDBRANCH  26  28
ENDBRANCH  25  26
ENDBRANCH  24  25
ENDBRANCH  23  24
ENDBRANCH  21  23
ENDBRANCH   6  21
TORSDOF 10
ENDMDL
MODEL 8
REMARK VINA RESULT:      -7.2     45.903     48.488
REMARK  Name = 
REMARK  10 active torsions:
REMARK  status: ('A' for Active; 'I' for Inactive)
REMARK    1  A    between atoms: C_5  and  C_7
REMARK    2  A    between atoms: C_7  and  C_15
REMARK    3  A    between atoms: C_10  and  O_29
REMARK    4  A    between atoms: C_10  and  O_30
REMARK    5  A    between atoms: C_13  and  C_18
REMARK    6  A    between atoms: C_15  and  O_29
REMARK    7  A    between atoms: C_16  and  C_20
REMARK    8  A    between atoms: C_17  and  C_21
REMARK    9  A    between atoms: C_20  and  O_28
REMARK   10  A    between atoms: C_21  and  O_30
REMARK                            x       y       z     vdW  Elec       q    Type
REMARK                         _______ _______ _______ _____ _____    ______ ____
ROOT
ATOM      1  C   UNL     1     161.144 124.727 185.179  0.00  0.00    +0.000 C 
ATOM      2  C   UNL     1     162.084 126.160 187.465  0.00  0.00    +0.000 C 
ATOM      3  C   UNL     1     161.495 125.397 185.507  0.00  0.00    +0.000 C 
ATOM      4  C   UNL     1     161.965 126.114 186.651  0.00  0.00    +0.000 C 
ATOM      5  C   UNL     1     161.727 126.022 185.021  0.00  0.00    +0.000 C 
ATOM      6  C   UNL     1     162.197 126.738 186.164  0.00  0.00    +0.000 C 
ATOM      7  C   UNL     1     162.078 126.692 185.348  0.00  0.00    +0.000 C 
ATOM      8  N   UNL     1     161.614 125.444 186.322  0.00  0.00    +0.000 NA
ENDROOT
BRANCH   7  12
ATOM      9  C   UNL     1     163.304 127.955 184.056  0.00  0.00    +0.000 A 
ATOM     10  C   UNL     1     163.072 127.331 184.542  0.00  0.00    +0.000 A 
ATOM     11  C   UNL     1     162.775 128.566 183.888  0.00  0.00    +0.000 A 
ATOM     12  C   UNL     1     162.310 127.317 184.862  0.00  0.00    +0.000 A 
ATOM     13  C   UNL     1     162.014 128.552 184.207  0.00  0.00    +0.000 A 
ATOM     14  C   UNL     1     161.782 127.928 184.694  0.00  0.00    +0.000 A 
ATOM     15 CL   UNL     1     161.486 129.162 184.040  0.00  0.00    +0.000 Cl
ATOM     16 CL   UNL     1     161.022 127.913 185.013  0.00  0.00    +0.000 Cl
ENDBRANCH   7  12
BRANCH   5  17
ATOM     17  C   UNL     1     161.609 125.976 184.206  0.00  0.00    +0.000 C 
ATOM     18  O   UNL     1     161.334 126.225 183.469  0.00  0.00    +0.000 OA
BRANCH  17  20
ATOM     19  C   UNL     1     161.627 125.179 183.019  0.00  0.00    +0.000 C 
ATOM     20  O   UNL     1     161.904 125.332 183.782  0.00  0.00    +0.000 OA
ENDBRANCH  17  20
ENDBRANCH   5  17
BRANCH   6  21
ATOM     21  C   UNL     1     162.548 127.409 186.492  0.00  0.00    +0.000 C 
ATOM     22  O   UNL     1     162.081 128.046 186.729  0.00  0.00    +0.000 OA
BRANCH  21  23
ATOM     23  O   UNL     1     163.368 127.442 186.583  0.00  0.00    +0.000 OA
BRANCH  23  24
ATOM     24  C   UNL     1     163.695 127.825 187.236  0.00  0.00    +0.000 C 
BRANCH  24  25
ATOM     25  O   UNL     1     164.500 128.007 187.247  0.00  0.00    +0.000 OA
BRANCH  25  26
ATOM     26  C   UNL     1     164.859 128.247 187.950  0.00  0.00    +0.000 C 
ATOM     27  O   UNL     1     164.861 127.745 188.605  0.00  0.00    +0.000 OA
BRANCH  26  28
ATOM     28  C   UNL     1     165.215 128.990 187.999  0.00  0.00    +0.000 C 
BRANCH  28  30
ATOM     29  C   UNL     1     166.309 129.814 188.407  0.00  0.00    +0.000 C 
ATOM     30  C   UNL     1     165.953 129.070 188.359  0.00  0.00    +0.000 C 
ENDBRANCH  28  30
ENDBRANCH  26  28
ENDBRANCH  25  26
ENDBRANCH  24  25
ENDBRANCH  23  24
ENDBRANCH  21  23
ENDBRANCH   6  21
TORSDOF 10
ENDMDL
MODEL 9
REMARK VINA RESULT:      -7.2     18.618     20.270
REMARK  Name = 
REMARK  10 active torsions:
REMARK  status: ('A' for Active; 'I' for Inactive)
REMARK    1  A    between atoms: C_5  and  C_7
REMARK    2  A    between atoms: C_7  and  C_15
REMARK    3  A    between atoms: C_10  and  O_29
REMARK    4  A    between atoms: C_10  and  O_30
REMARK    5  A    between atoms: C_13  and  C_18
REMARK    6  A    between atoms: C_15  and  O_29
REMARK    7  A    between atoms: C_16  and  C_20
REMARK    8  A    between atoms: C_17  and  C_21
REMARK    9  A    between atoms: C_20  and  O_28
REMARK   10  A    between atoms: C_21  and  O_30
REMARK                            x       y       z     vdW  Elec       q    Type
REMARK                         _______ _______ _______ _____ _____    ______ ____
ROOT
ATOM      1  C   UNL     1     155.679 116.845 128.254  0.00  0.00    +0.000 C 
ATOM      2  C   UNL     1     153.155 116.501 129.548  0.00  0.00    +0.000 C 
ATOM      3  C   UNL     1     154.915 116.534 128.259  0.00  0.00    +0.000 C 
ATOM      4  C   UNL     1     153.653 116.361 128.906  0.00  0.00    +0.000 C 
ATOM      5  C   UNL     1     154.650 116.082 127.621  0.00  0.00    +0.000 C 
ATOM      6  C   UNL     1     153.388 115.910 128.269  0.00  0.00    +0.000 C 
ATOM      7  C   UNL     1     153.886 115.770 127.626  0.00  0.00    +0.000 C 
ATOM      8  N   UNL     1     154.417 116.673 128.901  0.00  0.00    +0.000 NA
ENDROOT
BRANCH   7  12
ATOM      9  C   UNL     1     152.941 115.227 125.734  0.00  0.00    +0.000 A 
ATOM     10  C   UNL     1     153.206 115.679 126.372  0.00  0.00    +0.000 A 
ATOM     11  C   UNL     1     153.090 114.416 125.713  0.00  0.00    +0.000 A 
ATOM     12  C   UNL     1     153.621 115.319 126.988  0.00  0.00    +0.000 A 
ATOM     13  C   UNL     1     153.504 114.056 126.328  0.00  0.00    +0.000 A 
ATOM     14  C   UNL     1     153.770 114.508 126.966  0.00  0.00    +0.000 A 
ATOM     15 CL   UNL     1     153.654 113.246 126.307  0.00  0.00    +0.000 Cl
ATOM     16 CL   UNL     1     154.184 114.149 127.582  0.00  0.00    +0.000 Cl
ENDBRANCH   7  12
BRANCH   5  17
ATOM     17  C   UNL     1     155.148 115.942 126.979  0.00  0.00    +0.000 C 
ATOM     18  O   UNL     1     155.581 115.485 126.446  0.00  0.00    +0.000 OA
BRANCH  17  20
ATOM     19  C   UNL     1     156.089 116.466 126.038  0.00  0.00    +0.000 C 
ATOM     20  O   UNL     1     155.443 116.577 126.541  0.00  0.00    +0.000 OA
ENDBRANCH  17  20
ENDBRANCH   5  17
BRANCH   6  21
ATOM     21  C   UNL     1     152.624 115.598 128.273  0.00  0.00    +0.000 C 
ATOM     22  O   UNL     1     152.030 115.955 127.826  0.00  0.00    +0.000 OA
BRANCH  21  23
ATOM     23  O   UNL     1     152.455 114.928 128.725  0.00  0.00    +0.000 OA
BRANCH  23  24
ATOM     24  C   UNL     1     151.693 114.810 129.018  0.00  0.00    +0.000 C 
BRANCH  24  25
ATOM     25  O   UNL     1     151.447 114.052 129.232  0.00  0.00    +0.000 OA
BRANCH  25  26
ATOM     26  C   UNL     1     150.773 113.954 129.698  0.00  0.00    +0.000 C 
ATOM     27  O   UNL     1     150.812 114.078 130.512  0.00  0.00    +0.000 OA
BRANCH  26  28
ATOM     28  C   UNL     1     150.058 113.733 129.347  0.00  0.00    +0.000 C 
BRANCH  28  30
ATOM     29  C   UNL     1     148.850 112.971 129.376  0.00  0.00    +0.000 C 
ATOM     30  C   UNL     1     149.563 113.193 129.727  0.00  0.00    +0.000 C 
ENDBRANCH  28  30
ENDBRANCH  26  28
ENDBRANCH  25  26
ENDBRANCH  24  25
ENDBRANCH  23  24
ENDBRANCH  21  23
ENDBRANCH   6  21
TORSDOF 10
ENDMDL
MODEL 10
REMARK VINA RESULT:      -7.1      2.087      3.014
REMARK  Name = 
REMARK  10 active torsions:
REMARK  status: ('A' for Active; 'I' for Inactive)
REMARK    1  A    between atoms: C_5  and  C_7
REMARK    2  A    between atoms: C_7  and  C_15
REMARK    3  A    between atoms: C_10  and  O_29
REMARK    4  A    between atoms: C_10  and  O_30
REMARK    5  A    between atoms: C_13  and  C_18
REMARK    6  A    between atoms: C_15  and  O_29
REMARK    7  A    between atoms: C_16  and  C_20
REMARK    8  A    between atoms: C_17  and  C_21
REMARK    9  A    between atoms: C_20  and  O_28
REMARK   10  A    between atoms: C_21  and  O_30
REMARK                            x       y       z     vdW  Elec       q    Type
REMARK                         _______ _______ _______ _____ _____    ______ ____
ROOT
ATOM      1  C   UNL     1     157.140 131.758 136.672  0.00  0.00    +0.000 C 
ATOM      2  C   UNL     1     154.445 131.212 135.894  0.00  0.00    +0.000 C 
ATOM      3  C   UNL     1     156.330 131.812 136.816  0.00  0.00    +0.000 C 
ATOM      4  C   UNL     1     154.982 131.539 136.427  0.00  0.00    +0.000 C 
ATOM      5  C   UNL     1     156.057 132.194 137.495  0.00  0.00    +0.000 C 
ATOM      6  C   UNL     1     154.709 131.921 137.106  0.00  0.00    +0.000 C 
ATOM      7  C   UNL     1     155.247 132.248 137.640  0.00  0.00    +0.000 C 
ATOM      8  N   UNL     1     155.793 131.485 136.283  0.00  0.00    +0.000 NA
ENDROOT
BRANCH   7  12
ATOM      9  C   UNL     1     154.538 132.575 139.679  0.00  0.00    +0.000 A 
ATOM     10  C   UNL     1     154.811 132.194 139.001  0.00  0.00    +0.000 A 
ATOM     11  C   UNL     1     154.427 133.393 139.676  0.00  0.00    +0.000 A 
ATOM     12  C   UNL     1     154.973 132.630 138.319  0.00  0.00    +0.000 A 
ATOM     13  C   UNL     1     154.589 133.829 138.995  0.00  0.00    +0.000 A 
ATOM     14  C   UNL     1     154.862 133.447 138.316  0.00  0.00    +0.000 A 
ATOM     15 CL   UNL     1     154.478 134.646 138.992  0.00  0.00    +0.000 Cl
ATOM     16 CL   UNL     1     155.025 133.882 137.635  0.00  0.00    +0.000 Cl
ENDBRANCH   7  12
BRANCH   5  17
ATOM     17  C   UNL     1     156.593 132.521 138.029  0.00  0.00    +0.000 C 
ATOM     18  O   UNL     1     156.931 133.117 138.488  0.00  0.00    +0.000 OA
BRANCH  17  20
ATOM     19  C   UNL     1     157.872 132.400 138.656  0.00  0.00    +0.000 C 
ATOM     20  O   UNL     1     157.187 132.050 138.358  0.00  0.00    +0.000 OA
ENDBRANCH  17  20
ENDBRANCH   5  17
BRANCH   6  21
ATOM     21  C   UNL     1     153.899 131.975 137.251  0.00  0.00    +0.000 C 
ATOM     22  O   UNL     1     153.545 131.479 137.807  0.00  0.00    +0.000 OA
BRANCH  21  23
ATOM     23  O   UNL     1     153.443 132.527 136.839  0.00  0.00    +0.000 OA
BRANCH  23  24
ATOM     24  C   UNL     1     152.633 132.402 136.744  0.00  0.00    +0.000 C 
BRANCH  24  25
ATOM     25  O   UNL     1     152.201 132.878 136.225  0.00  0.00    +0.000 OA
BRANCH  25  26
ATOM     26  C   UNL     1     151.380 132.917 136.289  0.00  0.00    +0.000 C 
ATOM     27  O   UNL     1     151.032 133.174 136.991  0.00  0.00    +0.000 OA
BRANCH  26  28
ATOM     28  C   UNL     1     150.906 132.699 135.649  0.00  0.00    +0.000 C 
BRANCH  28  30
ATOM     29  C   UNL     1     149.898 133.031 134.692  0.00  0.00    +0.000 C 
ATOM     30  C   UNL     1     150.313 133.207 135.384  0.00  0.00    +0.000 C 
ENDBRANCH  28  30
ENDBRANCH  26  28
ENDBRANCH  25  26
ENDBRANCH  24  25
ENDBRANCH  23  24
ENDBRANCH  21  23
ENDBRANCH   6  21
TORSDOF 10
ENDMDL
MODEL 11
REMARK VINA RESULT:      -7.0     68.232     70.317
REMARK  Name = 
REMARK  10 active torsions:
REMARK  status: ('A' for Active; 'I' for Inactive)
REMARK    1  A    between atoms: C_5  and  C_7
REMARK    2  A    between atoms: C_7  and  C_15
REMARK    3  A    between atoms: C_10  and  O_29
REMARK    4  A    between atoms: C_10  and  O_30
REMARK    5  A    between atoms: C_13  and  C_18
REMARK    6  A    between atoms: C_15  and  O_29
REMARK    7  A    between atoms: C_16  and  C_20
REMARK    8  A    between atoms: C_17  and  C_21
REMARK    9  A    between atoms: C_20  and  O_28
REMARK   10  A    between atoms: C_21  and  O_30
REMARK                            x       y       z     vdW  Elec       q    Type
REMARK                         _______ _______ _______ _____ _____    ______ ____
ROOT
ATOM      1  C   UNL     1     106.482 122.606 190.600  0.00  0.00    +0.000 C 
ATOM      2  C   UNL     1     106.839 120.889 188.344  0.00  0.00    +0.000 C 
ATOM      3  C   UNL     1     106.601 121.852 190.288  0.00  0.00    +0.000 C 
ATOM      4  C   UNL     1     106.779 120.993 189.160  0.00  0.00    +0.000 C 
ATOM      5  C   UNL     1     106.660 121.202 190.792  0.00  0.00    +0.000 C 
ATOM      6  C   UNL     1     106.839 120.343 189.664  0.00  0.00    +0.000 C 
ATOM      7  C   UNL     1     106.779 120.447 190.481  0.00  0.00    +0.000 C 
ATOM      8  N   UNL     1     106.661 121.748 189.472  0.00  0.00    +0.000 NA
ENDROOT
BRANCH   7  12
ATOM      9  C   UNL     1     107.634 118.917 191.783  0.00  0.00    +0.000 A 
ATOM     10  C   UNL     1     107.575 119.567 191.278  0.00  0.00    +0.000 A 
ATOM     11  C   UNL     1     106.956 118.496 191.994  0.00  0.00    +0.000 A 
ATOM     12  C   UNL     1     106.838 119.797 190.985  0.00  0.00    +0.000 A 
ATOM     13  C   UNL     1     106.220 118.726 191.702  0.00  0.00    +0.000 A 
ATOM     14  C   UNL     1     106.161 119.376 191.197  0.00  0.00    +0.000 A 
ATOM     15 CL   UNL     1     105.543 118.305 191.913  0.00  0.00    +0.000 Cl
ATOM     16 CL   UNL     1     105.425 119.606 190.904  0.00  0.00    +0.000 Cl
ENDBRANCH   7  12
BRANCH   5  17
ATOM     17  C   UNL     1     106.600 121.305 191.608  0.00  0.00    +0.000 C 
ATOM     18  O   UNL     1     106.301 121.173 192.365  0.00  0.00    +0.000 OA
BRANCH  17  20
ATOM     19  C   UNL     1     106.923 122.084 192.764  0.00  0.00    +0.000 C 
ATOM     20  O   UNL     1     107.095 121.843 191.993  0.00  0.00    +0.000 OA
ENDBRANCH  17  20
ENDBRANCH   5  17
BRANCH   6  21
ATOM     21  C   UNL     1     106.957 119.588 189.353  0.00  0.00    +0.000 C 
ATOM     22  O   UNL     1     106.311 119.105 189.184  0.00  0.00    +0.000 OA
BRANCH  21  23
ATOM     23  O   UNL     1     107.724 119.317 189.211  0.00  0.00    +0.000 OA
BRANCH  23  24
ATOM     24  C   UNL     1     107.855 118.728 188.649  0.00  0.00    +0.000 C 
BRANCH  24  25
ATOM     25  O   UNL     1     108.609 118.403 188.560  0.00  0.00    +0.000 OA
BRANCH  25  26
ATOM     26  C   UNL     1     108.734 117.796 188.016  0.00  0.00    +0.000 C 
ATOM     27  O   UNL     1     108.176 117.195 187.932  0.00  0.00    +0.000 OA
BRANCH  26  28
ATOM     28  C   UNL     1     109.419 117.791 187.554  0.00  0.00    +0.000 C 
BRANCH  28  30
ATOM     29  C   UNL     1     110.373 117.078 186.764  0.00  0.00    +0.000 C 
ATOM     30  C   UNL     1     109.669 117.091 187.196  0.00  0.00    +0.000 C 
ENDBRANCH  28  30
ENDBRANCH  26  28
ENDBRANCH  25  26
ENDBRANCH  24  25
ENDBRANCH  23  24
ENDBRANCH  21  23
ENDBRANCH   6  21
TORSDOF 10
ENDMDL
MODEL 12
REMARK VINA RESULT:      -7.0     18.442     20.204
REMARK  Name = 
REMARK  10 active torsions:
REMARK  status: ('A' for Active; 'I' for Inactive)
REMARK    1  A    between atoms: C_5  and  C_7
REMARK    2  A    between atoms: C_7  and  C_15
REMARK    3  A    between atoms: C_10  and  O_29
REMARK    4  A    between atoms: C_10  and  O_30
REMARK    5  A    between atoms: C_13  and  C_18
REMARK    6  A    between atoms: C_15  and  O_29
REMARK    7  A    between atoms: C_16  and  C_20
REMARK    8  A    between atoms: C_17  and  C_21
REMARK    9  A    between atoms: C_20  and  O_28
REMARK   10  A    between atoms: C_21  and  O_30
REMARK                            x       y       z     vdW  Elec       q    Type
REMARK                         _______ _______ _______ _____ _____    ______ ____
ROOT
ATOM      1  C   UNL     1     155.389 116.315 125.468  0.00  0.00    +0.000 C 
ATOM      2  C   UNL     1     152.888 115.023 125.958  0.00  0.00    +0.000 C 
ATOM      3  C   UNL     1     154.816 116.045 125.996  0.00  0.00    +0.000 C 
ATOM      4  C   UNL     1     153.565 115.399 126.241  0.00  0.00    +0.000 C 
ATOM      5  C   UNL     1     154.920 116.153 126.807  0.00  0.00    +0.000 C 
ATOM      6  C   UNL     1     153.669 115.507 127.053  0.00  0.00    +0.000 C 
ATOM      7  C   UNL     1     154.347 115.883 127.336  0.00  0.00    +0.000 C 
ATOM      8  N   UNL     1     154.139 115.669 125.713  0.00  0.00    +0.000 NA
ENDROOT
BRANCH   7  12
ATOM      9  C   UNL     1     154.220 116.752 129.335  0.00  0.00    +0.000 A 
ATOM     10  C   UNL     1     154.116 116.645 128.524  0.00  0.00    +0.000 A 
ATOM     11  C   UNL     1     154.658 116.205 129.770  0.00  0.00    +0.000 A 
ATOM     12  C   UNL     1     154.450 115.991 128.147  0.00  0.00    +0.000 A 
ATOM     13  C   UNL     1     154.991 115.551 129.395  0.00  0.00    +0.000 A 
ATOM     14  C   UNL     1     154.888 115.444 128.584  0.00  0.00    +0.000 A 
ATOM     15 CL   UNL     1     155.429 115.005 129.830  0.00  0.00    +0.000 Cl
ATOM     16 CL   UNL     1     155.221 114.790 128.207  0.00  0.00    +0.000 Cl
ENDBRANCH   7  12
BRANCH   5  17
ATOM     17  C   UNL     1     155.597 116.529 127.091  0.00  0.00    +0.000 C 
ATOM     18  O   UNL     1     156.276 116.613 127.552  0.00  0.00    +0.000 OA
BRANCH  17  20
ATOM     19  C   UNL     1     156.568 117.566 126.928  0.00  0.00    +0.000 C 
ATOM     20  O   UNL     1     155.806 117.274 126.802  0.00  0.00    +0.000 OA
ENDBRANCH  17  20
ENDBRANCH   5  17
BRANCH   6  21
ATOM     21  C   UNL     1     153.096 115.238 127.581  0.00  0.00    +0.000 C 
ATOM     22  O   UNL     1     152.555 115.767 127.909  0.00  0.00    +0.000 OA
BRANCH  21  23
ATOM     23  O   UNL     1     153.064 114.437 127.782  0.00  0.00    +0.000 OA
BRANCH  23  24
ATOM     24  C   UNL     1     152.349 114.100 128.019  0.00  0.00    +0.000 C 
BRANCH  24  25
ATOM     25  O   UNL     1     152.349 113.422 128.489  0.00  0.00    +0.000 OA
BRANCH  25  26
ATOM     26  C   UNL     1     151.665 112.965 128.553  0.00  0.00    +0.000 C 
ATOM     27  O   UNL     1     151.353 112.592 127.886  0.00  0.00    +0.000 OA
BRANCH  26  28
ATOM     28  C   UNL     1     151.292 112.882 129.285  0.00  0.00    +0.000 C 
BRANCH  28  30
ATOM     29  C   UNL     1     150.554 112.079 130.209  0.00  0.00    +0.000 C 
ATOM     30  C   UNL     1     150.996 112.147 129.515  0.00  0.00    +0.000 C 
ENDBRANCH  28  30
ENDBRANCH  26  28
ENDBRANCH  25  26
ENDBRANCH  24  25
ENDBRANCH  23  24
ENDBRANCH  21  23
ENDBRANCH   6  21
TORSDOF 10
ENDMDL
MODEL 13
REMARK VINA RESULT:      -7.0     56.593     58.665
REMARK  Name = 
REMARK  10 active torsions:
REMARK  status: ('A' for Active; 'I' for Inactive)
REMARK    1  A    between atoms: C_5  and  C_7
REMARK    2  A    between atoms: C_7  and  C_15
REMARK    3  A    between atoms: C_10  and  O_29
REMARK    4  A    between atoms: C_10  and  O_30
REMARK    5  A    between atoms: C_13  and  C_18
REMARK    6  A    between atoms: C_15  and  O_29
REMARK    7  A    between atoms: C_16  and  C_20
REMARK    8  A    between atoms: C_17  and  C_21
REMARK    9  A    between atoms: C_20  and  O_28
REMARK   10  A    between atoms: C_21  and  O_30
REMARK                            x       y       z     vdW  Elec       q    Type
REMARK                         _______ _______ _______ _____ _____    ______ ____
ROOT
ATOM      1  C   UNL     1     105.200 141.047 106.945  0.00  0.00    +0.000 C 
ATOM      2  C   UNL     1     104.482 141.855 109.589  0.00  0.00    +0.000 C 
ATOM      3  C   UNL     1     104.954 141.632 107.470  0.00  0.00    +0.000 C 
ATOM      4  C   UNL     1     104.594 142.036 108.793  0.00  0.00    +0.000 C 
ATOM      5  C   UNL     1     104.820 142.400 107.199  0.00  0.00    +0.000 C 
ATOM      6  C   UNL     1     104.461 142.804 108.522  0.00  0.00    +0.000 C 
ATOM      7  C   UNL     1     104.573 142.986 107.725  0.00  0.00    +0.000 C 
ATOM      8  N   UNL     1     104.841 141.451 108.266  0.00  0.00    +0.000 NA
ENDROOT
BRANCH   7  12
ATOM      9  C   UNL     1     103.548 144.751 106.950  0.00  0.00    +0.000 A 
ATOM     10  C   UNL     1     103.682 143.983 107.221  0.00  0.00    +0.000 A 
ATOM     11  C   UNL     1     104.172 145.290 106.912  0.00  0.00    +0.000 A 
ATOM     12  C   UNL     1     104.440 143.754 107.454  0.00  0.00    +0.000 A 
ATOM     13  C   UNL     1     104.929 145.061 107.145  0.00  0.00    +0.000 A 
ATOM     14  C   UNL     1     105.063 144.293 107.416  0.00  0.00    +0.000 A 
ATOM     15 CL   UNL     1     105.552 145.599 107.108  0.00  0.00    +0.000 Cl
ATOM     16 CL   UNL     1     105.820 144.064 107.650  0.00  0.00    +0.000 Cl
ENDBRANCH   7  12
BRANCH   5  17
ATOM     17  C   UNL     1     104.932 142.583 106.403  0.00  0.00    +0.000 C 
ATOM     18  O   UNL     1     105.248 142.993 105.761  0.00  0.00    +0.000 OA
BRANCH  17  20
ATOM     19  C   UNL     1     104.779 142.199 105.034  0.00  0.00    +0.000 C 
ATOM     20  O   UNL     1     104.534 142.153 105.821  0.00  0.00    +0.000 OA
ENDBRANCH  17  20
ENDBRANCH   5  17
BRANCH   6  21
ATOM     21  C   UNL     1     104.214 143.390 109.048  0.00  0.00    +0.000 C 
ATOM     22  O   UNL     1     103.432 143.652 109.038  0.00  0.00    +0.000 OA
BRANCH  21  23
ATOM     23  O   UNL     1     104.752 143.716 109.584  0.00  0.00    +0.000 OA
BRANCH  23  24
ATOM     24  C   UNL     1     104.477 144.090 110.266  0.00  0.00    +0.000 C 
BRANCH  24  25
ATOM     25  O   UNL     1     105.013 144.440 110.788  0.00  0.00    +0.000 OA
BRANCH  25  26
ATOM     26  C   UNL     1     104.738 144.919 111.400  0.00  0.00    +0.000 C 
ATOM     27  O   UNL     1     104.023 144.743 111.773  0.00  0.00    +0.000 OA
BRANCH  26  28
ATOM     28  C   UNL     1     105.179 145.575 111.640  0.00  0.00    +0.000 C 
BRANCH  28  30
ATOM     29  C   UNL     1     105.846 146.301 112.674  0.00  0.00    +0.000 C 
ATOM     30  C   UNL     1     105.340 145.692 112.440  0.00  0.00    +0.000 C 
ENDBRANCH  28  30
ENDBRANCH  26  28
ENDBRANCH  25  26
ENDBRANCH  24  25
ENDBRANCH  23  24
ENDBRANCH  21  23
ENDBRANCH   6  21
TORSDOF 10
ENDMDL
MODEL 14
REMARK VINA RESULT:      -7.0     52.130     53.568
REMARK  Name = 
REMARK  10 active torsions:
REMARK  status: ('A' for Active; 'I' for Inactive)
REMARK    1  A    between atoms: C_5  and  C_7
REMARK    2  A    between atoms: C_7  and  C_15
REMARK    3  A    between atoms: C_10  and  O_29
REMARK    4  A    between atoms: C_10  and  O_30
REMARK    5  A    between atoms: C_13  and  C_18
REMARK    6  A    between atoms: C_15  and  O_29
REMARK    7  A    between atoms: C_16  and  C_20
REMARK    8  A    between atoms: C_17  and  C_21
REMARK    9  A    between atoms: C_20  and  O_28
REMARK   10  A    between atoms: C_21  and  O_30
REMARK                            x       y       z     vdW  Elec       q    Type
REMARK                         _______ _______ _______ _____ _____    ______ ____
ROOT
ATOM      1  C   UNL     1     139.355 155.643  93.797  0.00  0.00    +0.000 C 
ATOM      2  C   UNL     1     138.363 152.964  93.865  0.00  0.00    +0.000 C 
ATOM      3  C   UNL     1     138.736 155.108  93.696  0.00  0.00    +0.000 C 
ATOM      4  C   UNL     1     138.240 153.768  93.730  0.00  0.00    +0.000 C 
ATOM      5  C   UNL     1     137.993 155.377  93.459  0.00  0.00    +0.000 C 
ATOM      6  C   UNL     1     137.496 154.037  93.494  0.00  0.00    +0.000 C 
ATOM      7  C   UNL     1     137.373 154.843  93.358  0.00  0.00    +0.000 C 
ATOM      8  N   UNL     1     138.859 154.304  93.831  0.00  0.00    +0.000 NA
ENDROOT
BRANCH   7  12
ATOM      9  C   UNL     1     135.309 155.548  93.451  0.00  0.00    +0.000 A 
ATOM     10  C   UNL     1     136.052 155.279  93.687  0.00  0.00    +0.000 A 
ATOM     11  C   UNL     1     135.143 155.650  92.649  0.00  0.00    +0.000 A 
ATOM     12  C   UNL     1     136.629 155.112  93.122  0.00  0.00    +0.000 A 
ATOM     13  C   UNL     1     135.720 155.483  92.084  0.00  0.00    +0.000 A 
ATOM     14  C   UNL     1     136.463 155.214  92.320  0.00  0.00    +0.000 A 
ATOM     15 CL   UNL     1     135.554 155.585  91.283  0.00  0.00    +0.000 Cl
ATOM     16 CL   UNL     1     137.040 155.047  91.756  0.00  0.00    +0.000 Cl
ENDBRANCH   7  12
BRANCH   5  17
ATOM     17  C   UNL     1     137.868 156.181  93.324  0.00  0.00    +0.000 C 
ATOM     18  O   UNL     1     137.649 156.848  92.891  0.00  0.00    +0.000 OA
BRANCH  17  20
ATOM     19  C   UNL     1     138.121 157.529  93.730  0.00  0.00    +0.000 C 
ATOM     20  O   UNL     1     138.034 156.730  93.919  0.00  0.00    +0.000 OA
ENDBRANCH  17  20
ENDBRANCH   5  17
BRANCH   6  21
ATOM     21  C   UNL     1     136.877 153.503  93.392  0.00  0.00    +0.000 C 
ATOM     22  O   UNL     1     136.294 153.431  93.972  0.00  0.00    +0.000 OA
BRANCH  21  23
ATOM     23  O   UNL     1     136.839 153.040  92.710  0.00  0.00    +0.000 OA
BRANCH  23  24
ATOM     24  C   UNL     1     136.417 152.331  92.716  0.00  0.00    +0.000 C 
BRANCH  24  25
ATOM     25  O   UNL     1     136.255 151.942  92.006  0.00  0.00    +0.000 OA
BRANCH  25  26
ATOM     26  C   UNL     1     135.741 151.297  91.998  0.00  0.00    +0.000 C 
ATOM     27  O   UNL     1     135.934 150.609  92.411  0.00  0.00    +0.000 OA
BRANCH  26  28
ATOM     28  C   UNL     1     135.032 151.340  91.576  0.00  0.00    +0.000 C 
BRANCH  28  30
ATOM     29  C   UNL     1     134.067 150.728  90.719  0.00  0.00    +0.000 C 
ATOM     30  C   UNL     1     134.734 150.668  91.203  0.00  0.00    +0.000 C 
ENDBRANCH  28  30
ENDBRANCH  26  28
ENDBRANCH  25  26
ENDBRANCH  24  25
ENDBRANCH  23  24
ENDBRANCH  21  23
ENDBRANCH   6  21
TORSDOF 10
ENDMDL
MODEL 15
REMARK VINA RESULT:      -6.9     68.877     69.773
REMARK  Name = 
REMARK  10 active torsions:
REMARK  status: ('A' for Active; 'I' for Inactive)
REMARK    1  A    between atoms: C_5  and  C_7
REMARK    2  A    between atoms: C_7  and  C_15
REMARK    3  A    between atoms: C_10  and  O_29
REMARK    4  A    between atoms: C_10  and  O_30
REMARK    5  A    between atoms: C_13  and  C_18
REMARK    6  A    between atoms: C_15  and  O_29
REMARK    7  A    between atoms: C_16  and  C_20
REMARK    8  A    between atoms: C_17  and  C_21
REMARK    9  A    between atoms: C_20  and  O_28
REMARK   10  A    between atoms: C_21  and  O_30
REMARK                            x       y       z     vdW  Elec       q    Type
REMARK                         _______ _______ _______ _____ _____    ______ ____
ROOT
ATOM      1  C   UNL     1     108.146 113.944  88.624  0.00  0.00    +0.000 C 
ATOM      2  C   UNL     1     107.660 112.222  90.851  0.00  0.00    +0.000 C 
ATOM      3  C   UNL     1     108.280 113.233  89.019  0.00  0.00    +0.000 C 
ATOM      4  C   UNL     1     108.037 112.372  90.133  0.00  0.00    +0.000 C 
ATOM      5  C   UNL     1     108.791 112.672  88.697  0.00  0.00    +0.000 C 
ATOM      6  C   UNL     1     108.548 111.810  89.811  0.00  0.00    +0.000 C 
ATOM      7  C   UNL     1     108.925 111.960  89.092  0.00  0.00    +0.000 C 
ATOM      8  N   UNL     1     107.903 113.083  89.737  0.00  0.00    +0.000 NA
ENDROOT
BRANCH   7  12
ATOM      9  C   UNL     1     109.656 110.259  87.934  0.00  0.00    +0.000 A 
ATOM     10  C   UNL     1     109.145 110.821  88.257  0.00  0.00    +0.000 A 
ATOM     11  C   UNL     1     110.458 110.275  88.124  0.00  0.00    +0.000 A 
ATOM     12  C   UNL     1     109.436 111.399  88.769  0.00  0.00    +0.000 A 
ATOM     13  C   UNL     1     110.750 110.852  88.636  0.00  0.00    +0.000 A 
ATOM     14  C   UNL     1     110.239 111.414  88.958  0.00  0.00    +0.000 A 
ATOM     15 CL   UNL     1     111.552 110.868  88.826  0.00  0.00    +0.000 Cl
ATOM     16 CL   UNL     1     110.530 111.991  89.471  0.00  0.00    +0.000 Cl
ENDBRANCH   7  12
BRANCH   5  17
ATOM     17  C   UNL     1     109.169 112.821  87.979  0.00  0.00    +0.000 C 
ATOM     18  O   UNL     1     109.811 112.911  87.469  0.00  0.00    +0.000 OA
BRANCH  17  20
ATOM     19  C   UNL     1     109.085 113.325  86.643  0.00  0.00    +0.000 C 
ATOM     20  O   UNL     1     108.722 112.994  87.306  0.00  0.00    +0.000 OA
ENDBRANCH  17  20
ENDBRANCH   5  17
BRANCH   6  21
ATOM     21  C   UNL     1     108.682 111.099  90.206  0.00  0.00    +0.000 C 
ATOM     22  O   UNL     1     109.310 111.033  90.737  0.00  0.00    +0.000 OA
BRANCH  21  23
ATOM     23  O   UNL     1     108.187 110.452  90.069  0.00  0.00    +0.000 OA
BRANCH  23  24
ATOM     24  C   UNL     1     108.133 109.850  90.630  0.00  0.00    +0.000 C 
BRANCH  24  25
ATOM     25  O   UNL     1     107.669 109.184  90.476  0.00  0.00    +0.000 OA
BRANCH  25  26
ATOM     26  C   UNL     1     107.856 108.462  90.828  0.00  0.00    +0.000 C 
ATOM     27  O   UNL     1     107.849 108.389  91.650  0.00  0.00    +0.000 OA
BRANCH  26  28
ATOM     28  C   UNL     1     108.051 107.812  90.358  0.00  0.00    +0.000 C 
BRANCH  28  30
ATOM     29  C   UNL     1     108.112 106.397  90.166  0.00  0.00    +0.000 C 
ATOM     30  C   UNL     1     107.910 107.047  90.633  0.00  0.00    +0.000 C 
ENDBRANCH  28  30
ENDBRANCH  26  28
ENDBRANCH  25  26
ENDBRANCH  24  25
ENDBRANCH  23  24
ENDBRANCH  21  23
ENDBRANCH   6  21
TORSDOF 10
ENDMDL
MODEL 16
REMARK VINA RESULT:      -6.9     17.120     19.707
REMARK  Name = 
REMARK  10 active torsions:
REMARK  status: ('A' for Active; 'I' for Inactive)
REMARK    1  A    between atoms: C_5  and  C_7
REMARK    2  A    between atoms: C_7  and  C_15
REMARK    3  A    between atoms: C_10  and  O_29
REMARK    4  A    between atoms: C_10  and  O_30
REMARK    5  A    between atoms: C_13  and  C_18
REMARK    6  A    between atoms: C_15  and  O_29
REMARK    7  A    between atoms: C_16  and  C_20
REMARK    8  A    between atoms: C_17  and  C_21
REMARK    9  A    between atoms: C_20  and  O_28
REMARK   10  A    between atoms: C_21  and  O_30
REMARK                            x       y       z     vdW  Elec       q    Type
REMARK                         _______ _______ _______ _____ _____    ______ ____
ROOT
ATOM      1  C   UNL     1     152.647 113.448 127.331  0.00  0.00    +0.000 C 
ATOM      2  C   UNL     1     152.909 114.975 129.732  0.00  0.00    +0.000 C 
ATOM      3  C   UNL     1     153.069 113.984 127.794  0.00  0.00    +0.000 C 
ATOM      4  C   UNL     1     153.200 114.748 128.994  0.00  0.00    +0.000 C 
ATOM      5  C   UNL     1     153.782 114.295 127.518  0.00  0.00    +0.000 C 
ATOM      6  C   UNL     1     153.913 115.059 128.719  0.00  0.00    +0.000 C 
ATOM      7  C   UNL     1     154.204 114.832 127.980  0.00  0.00    +0.000 C 
ATOM      8  N   UNL     1     152.778 114.211 128.531  0.00  0.00    +0.000 NA
ENDROOT
BRANCH   7  12
ATOM      9  C   UNL     1     156.345 115.103 127.648  0.00  0.00    +0.000 A 
ATOM     10  C   UNL     1     155.632 114.793 127.923  0.00  0.00    +0.000 A 
ATOM     11  C   UNL     1     156.343 115.764 127.154  0.00  0.00    +0.000 A 
ATOM     12  C   UNL     1     154.917 115.143 127.705  0.00  0.00    +0.000 A 
ATOM     13  C   UNL     1     155.629 116.114 126.935  0.00  0.00    +0.000 A 
ATOM     14  C   UNL     1     154.916 115.804 127.211  0.00  0.00    +0.000 A 
ATOM     15 CL   UNL     1     155.628 116.774 126.442  0.00  0.00    +0.000 Cl
ATOM     16 CL   UNL     1     154.202 116.153 126.993  0.00  0.00    +0.000 Cl
ENDBRANCH   7  12
BRANCH   5  17
ATOM     17  C   UNL     1     154.073 114.069 126.780  0.00  0.00    +0.000 C 
ATOM     18  O   UNL     1     154.346 114.183 126.011  0.00  0.00    +0.000 OA
BRANCH  17  20
ATOM     19  C   UNL     1     154.296 113.019 125.835  0.00  0.00    +0.000 C 
ATOM     20  O   UNL     1     154.205 113.270 126.616  0.00  0.00    +0.000 OA
ENDBRANCH  17  20
ENDBRANCH   5  17
BRANCH   6  21
ATOM     21  C   UNL     1     154.335 115.596 129.181  0.00  0.00    +0.000 C 
ATOM     22  O   UNL     1     155.014 115.352 129.582  0.00  0.00    +0.000 OA
BRANCH  21  23
ATOM     23  O   UNL     1     154.078 116.379 129.242  0.00  0.00    +0.000 OA
BRANCH  23  24
ATOM     24  C   UNL     1     154.372 116.863 129.841  0.00  0.00    +0.000 C 
BRANCH  24  25
ATOM     25  O   UNL     1     154.055 117.617 129.955  0.00  0.00    +0.000 OA
BRANCH  25  26
ATOM     26  C   UNL     1     154.540 118.234 130.209  0.00  0.00    +0.000 C 
ATOM     27  O   UNL     1     155.145 118.512 129.721  0.00  0.00    +0.000 OA
BRANCH  26  28
ATOM     28  C   UNL     1     154.420 118.572 130.952  0.00  0.00    +0.000 C 
BRANCH  28  30
ATOM     29  C   UNL     1     154.654 119.633 131.881  0.00  0.00    +0.000 C 
ATOM     30  C   UNL     1     154.751 119.307 131.128  0.00  0.00    +0.000 C 
ENDBRANCH  28  30
ENDBRANCH  26  28
ENDBRANCH  25  26
ENDBRANCH  24  25
ENDBRANCH  23  24
ENDBRANCH  21  23
ENDBRANCH   6  21
TORSDOF 10
ENDMDL
MODEL 17
REMARK VINA RESULT:      -6.9     68.239     69.869
REMARK  Name = 
REMARK  10 active torsions:
REMARK  status: ('A' for Active; 'I' for Inactive)
REMARK    1  A    between atoms: C_5  and  C_7
REMARK    2  A    between atoms: C_7  and  C_15
REMARK    3  A    between atoms: C_10  and  O_29
REMARK    4  A    between atoms: C_10  and  O_30
REMARK    5  A    between atoms: C_13  and  C_18
REMARK    6  A    between atoms: C_15  and  O_29
REMARK    7  A    between atoms: C_16  and  C_20
REMARK    8  A    between atoms: C_17  and  C_21
REMARK    9  A    between atoms: C_20  and  O_28
REMARK   10  A    between atoms: C_21  and  O_30
REMARK                            x       y       z     vdW  Elec       q    Type
REMARK                         _______ _______ _______ _____ _____    ______ ____
ROOT
ATOM      1  C   UNL     1     109.158 112.914  86.738  0.00  0.00    +0.000 C 
ATOM      2  C   UNL     1     109.208 110.072  87.032  0.00  0.00    +0.000 C 
ATOM      3  C   UNL     1     109.212 112.246  87.219  0.00  0.00    +0.000 C 
ATOM      4  C   UNL     1     109.237 110.825  87.366  0.00  0.00    +0.000 C 
ATOM      5  C   UNL     1     109.295 112.332  88.035  0.00  0.00    +0.000 C 
ATOM      6  C   UNL     1     109.320 110.911  88.182  0.00  0.00    +0.000 C 
ATOM      7  C   UNL     1     109.349 111.665  88.518  0.00  0.00    +0.000 C 
ATOM      8  N   UNL     1     109.183 111.493  86.885  0.00  0.00    +0.000 NA
ENDROOT
BRANCH   7  12
ATOM      9  C   UNL     1     110.268 111.832  90.491  0.00  0.00    +0.000 A 
ATOM     10  C   UNL     1     110.184 111.746  89.675  0.00  0.00    +0.000 A 
ATOM     11  C   UNL     1     109.599 111.923  90.966  0.00  0.00    +0.000 A 
ATOM     12  C   UNL     1     109.433 111.751  89.334  0.00  0.00    +0.000 A 
ATOM     13  C   UNL     1     108.848 111.929  90.626  0.00  0.00    +0.000 A 
ATOM     14  C   UNL     1     108.765 111.843  89.810  0.00  0.00    +0.000 A 
ATOM     15 CL   UNL     1     108.181 112.020  91.101  0.00  0.00    +0.000 Cl
ATOM     16 CL   UNL     1     108.014 111.848  89.468  0.00  0.00    +0.000 Cl
ENDBRANCH   7  12
BRANCH   5  17
ATOM     17  C   UNL     1     109.325 113.085  88.371  0.00  0.00    +0.000 C 
ATOM     18  O   UNL     1     109.078 113.704  88.857  0.00  0.00    +0.000 OA
BRANCH  17  20
ATOM     19  C   UNL     1     109.831 114.420  88.288  0.00  0.00    +0.000 C 
ATOM     20  O   UNL     1     109.923 113.611  88.152  0.00  0.00    +0.000 OA
ENDBRANCH  17  20
ENDBRANCH   5  17
BRANCH   6  21
ATOM     21  C   UNL     1     109.374 110.244  88.665  0.00  0.00    +0.000 C 
ATOM     22  O   UNL     1     110.108 110.001  88.953  0.00  0.00    +0.000 OA
BRANCH  21  23
ATOM     23  O   UNL     1     108.693 109.819  88.858  0.00  0.00    +0.000 OA
BRANCH  23  24
ATOM     24  C   UNL     1     108.755 109.039  89.117  0.00  0.00    +0.000 C 
BRANCH  24  25
ATOM     25  O   UNL     1     108.097 108.659  89.442  0.00  0.00    +0.000 OA
BRANCH  25  26
ATOM     26  C   UNL     1     108.199 107.988  89.910  0.00  0.00    +0.000 C 
ATOM     27  O   UNL     1     108.491 107.292  89.577  0.00  0.00    +0.000 OA
BRANCH  26  28
ATOM     28  C   UNL     1     108.007 108.013  90.713  0.00  0.00    +0.000 C 
BRANCH  28  30
ATOM     29  C   UNL     1     107.568 107.352  91.902  0.00  0.00    +0.000 C 
ATOM     30  C   UNL     1     107.760 107.327  91.099  0.00  0.00    +0.000 C 
ENDBRANCH  28  30
ENDBRANCH  26  28
ENDBRANCH  25  26
ENDBRANCH  24  25
ENDBRANCH  23  24
ENDBRANCH  21  23
ENDBRANCH   6  21
TORSDOF 10
ENDMDL
MODEL 18
REMARK VINA RESULT:      -6.8     62.011     63.218
REMARK  Name = 
REMARK  10 active torsions:
REMARK  status: ('A' for Active; 'I' for Inactive)
REMARK    1  A    between atoms: C_5  and  C_7
REMARK    2  A    between atoms: C_7  and  C_15
REMARK    3  A    between atoms: C_10  and  O_29
REMARK    4  A    between atoms: C_10  and  O_30
REMARK    5  A    between atoms: C_13  and  C_18
REMARK    6  A    between atoms: C_15  and  O_29
REMARK    7  A    between atoms: C_16  and  C_20
REMARK    8  A    between atoms: C_17  and  C_21
REMARK    9  A    between atoms: C_20  and  O_28
REMARK   10  A    between atoms: C_21  and  O_30
REMARK                            x       y       z     vdW  Elec       q    Type
REMARK                         _______ _______ _______ _____ _____    ______ ____
ROOT
ATOM      1  C   UNL     1     102.583 140.260  99.013  0.00  0.00    +0.000 C 
ATOM      2  C   UNL     1     102.977 141.442 101.584  0.00  0.00    +0.000 C 
ATOM      3  C   UNL     1     103.034 140.723  99.525  0.00  0.00    +0.000 C 
ATOM      4  C   UNL     1     103.231 141.314 100.811  0.00  0.00    +0.000 C 
ATOM      5  C   UNL     1     103.741 141.058  99.263  0.00  0.00    +0.000 C 
ATOM      6  C   UNL     1     103.938 141.649 100.549  0.00  0.00    +0.000 C 
ATOM      7  C   UNL     1     104.194 141.520  99.774  0.00  0.00    +0.000 C 
ATOM      8  N   UNL     1     102.780 140.851 100.298  0.00  0.00    +0.000 NA
ENDROOT
BRANCH   7  12
ATOM      9  C   UNL     1     105.607 142.941  98.908  0.00  0.00    +0.000 A 
ATOM     10  C   UNL     1     104.900 142.607  99.170  0.00  0.00    +0.000 A 
ATOM     11  C   UNL     1     106.315 142.524  98.988  0.00  0.00    +0.000 A 
ATOM     12  C   UNL     1     104.901 141.855  99.512  0.00  0.00    +0.000 A 
ATOM     13  C   UNL     1     106.316 141.774  99.329  0.00  0.00    +0.000 A 
ATOM     14  C   UNL     1     105.609 141.439  99.591  0.00  0.00    +0.000 A 
ATOM     15 CL   UNL     1     107.023 141.357  99.408  0.00  0.00    +0.000 Cl
ATOM     16 CL   UNL     1     105.609 140.688  99.932  0.00  0.00    +0.000 Cl
ENDBRANCH   7  12
BRANCH   5  17
ATOM     17  C   UNL     1     103.997 140.930  98.489  0.00  0.00    +0.000 C 
ATOM     18  O   UNL     1     104.517 140.686  97.898  0.00  0.00    +0.000 OA
BRANCH  17  20
ATOM     19  C   UNL     1     103.671 140.845  97.099  0.00  0.00    +0.000 C 
ATOM     20  O   UNL     1     103.510 141.137  97.855  0.00  0.00    +0.000 OA
ENDBRANCH  17  20
ENDBRANCH   5  17
BRANCH   6  21
ATOM     21  C   UNL     1     104.391 142.111 101.060  0.00  0.00    +0.000 C 
ATOM     22  O   UNL     1     104.989 141.765 101.511  0.00  0.00    +0.000 OA
BRANCH  21  23
ATOM     23  O   UNL     1     104.245 142.922 101.121  0.00  0.00    +0.000 OA
BRANCH  23  24
ATOM     24  C   UNL     1     104.404 143.317 101.827  0.00  0.00    +0.000 C 
BRANCH  24  25
ATOM     25  O   UNL     1     104.239 144.124 101.894  0.00  0.00    +0.000 OA
BRANCH  25  26
ATOM     26  C   UNL     1     104.505 144.545 102.551  0.00  0.00    +0.000 C 
ATOM     27  O   UNL     1     104.376 144.250 103.311  0.00  0.00    +0.000 OA
BRANCH  26  28
ATOM     28  C   UNL     1     104.900 145.263 102.448  0.00  0.00    +0.000 C 
BRANCH  28  30
ATOM     29  C   UNL     1     105.077 146.638 102.794  0.00  0.00    +0.000 C 
ATOM     30  C   UNL     1     104.664 145.928 102.876  0.00  0.00    +0.000 C 
ENDBRANCH  28  30
ENDBRANCH  26  28
ENDBRANCH  25  26
ENDBRANCH  24  25
ENDBRANCH  23  24
ENDBRANCH  21  23
ENDBRANCH   6  21
TORSDOF 10
ENDMDL
MODEL 19
REMARK VINA RESULT:      -6.8     69.996     71.439
REMARK  Name = 
REMARK  10 active torsions:
REMARK  status: ('A' for Active; 'I' for Inactive)
REMARK    1  A    between atoms: C_5  and  C_7
REMARK    2  A    between atoms: C_7  and  C_15
REMARK    3  A    between atoms: C_10  and  O_29
REMARK    4  A    between atoms: C_10  and  O_30
REMARK    5  A    between atoms: C_13  and  C_18
REMARK    6  A    between atoms: C_15  and  O_29
REMARK    7  A    between atoms: C_16  and  C_20
REMARK    8  A    between atoms: C_17  and  C_21
REMARK    9  A    between atoms: C_20  and  O_28
REMARK   10  A    between atoms: C_21  and  O_30
REMARK                            x       y       z     vdW  Elec       q    Type
REMARK                         _______ _______ _______ _____ _____    ______ ____
ROOT
ATOM      1  C   UNL     1     106.678 122.300 189.976  0.00  0.00    +0.000 C 
ATOM      2  C   UNL     1     105.666 120.371 188.128  0.00  0.00    +0.000 C 
ATOM      3  C   UNL     1     106.433 121.531 189.809  0.00  0.00    +0.000 C 
ATOM      4  C   UNL     1     105.927 120.566 188.885  0.00  0.00    +0.000 C 
ATOM      5  C   UNL     1     106.449 120.956 190.401  0.00  0.00    +0.000 C 
ATOM      6  C   UNL     1     105.943 119.991 189.476  0.00  0.00    +0.000 C 
ATOM      7  C   UNL     1     106.204 120.186 190.235  0.00  0.00    +0.000 C 
ATOM      8  N   UNL     1     106.173 121.336 189.052  0.00  0.00    +0.000 NA
ENDROOT
BRANCH   7  12
ATOM      9  C   UNL     1     105.575 118.919 191.898  0.00  0.00    +0.000 A 
ATOM     10  C   UNL     1     105.559 119.494 191.306  0.00  0.00    +0.000 A 
ATOM     11  C   UNL     1     106.252 118.462 192.010  0.00  0.00    +0.000 A 
ATOM     12  C   UNL     1     106.220 119.611 190.827  0.00  0.00    +0.000 A 
ATOM     13  C   UNL     1     106.913 118.578 191.531  0.00  0.00    +0.000 A 
ATOM     14  C   UNL     1     106.897 119.153 190.939  0.00  0.00    +0.000 A 
ATOM     15 CL   UNL     1     107.589 118.121 191.643  0.00  0.00    +0.000 Cl
ATOM     16 CL   UNL     1     107.558 119.271 190.460  0.00  0.00    +0.000 Cl
ENDBRANCH   7  12
BRANCH   5  17
ATOM     17  C   UNL     1     106.710 121.151 191.159  0.00  0.00    +0.000 C 
ATOM     18  O   UNL     1     107.180 121.088 191.833  0.00  0.00    +0.000 OA
BRANCH  17  20
ATOM     19  C   UNL     1     106.724 122.102 192.226  0.00  0.00    +0.000 C 
ATOM     20  O   UNL     1     106.345 121.762 191.576  0.00  0.00    +0.000 OA
ENDBRANCH  17  20
ENDBRANCH   5  17
BRANCH   6  21
ATOM     21  C   UNL     1     105.698 119.221 189.311  0.00  0.00    +0.000 C 
ATOM     22  O   UNL     1     106.249 118.655 189.071  0.00  0.00    +0.000 OA
BRANCH  21  23
ATOM     23  O   UNL     1     104.902 119.017 189.385  0.00  0.00    +0.000 OA
BRANCH  23  24
ATOM     24  C   UNL     1     104.592 118.398 188.936  0.00  0.00    +0.000 C 
BRANCH  24  25
ATOM     25  O   UNL     1     103.814 118.148 189.060  0.00  0.00    +0.000 OA
BRANCH  25  26
ATOM     26  C   UNL     1     103.548 117.447 188.718  0.00  0.00    +0.000 C 
ATOM     27  O   UNL     1     103.548 117.362 187.897  0.00  0.00    +0.000 OA
BRANCH  26  28
ATOM     28  C   UNL     1     103.280 116.830 189.197  0.00  0.00    +0.000 C 
BRANCH  28  30
ATOM     29  C   UNL     1     102.238 115.937 189.595  0.00  0.00    +0.000 C 
ATOM     30  C   UNL     1     102.525 116.518 189.083  0.00  0.00    +0.000 C 
ENDBRANCH  28  30
ENDBRANCH  26  28
ENDBRANCH  25  26
ENDBRANCH  24  25
ENDBRANCH  23  24
ENDBRANCH  21  23
ENDBRANCH   6  21
TORSDOF 10
ENDMDL
MODEL 20
REMARK VINA RESULT:      -6.7     51.815     54.420
REMARK  Name = 
REMARK  10 active torsions:
REMARK  status: ('A' for Active; 'I' for Inactive)
REMARK    1  A    between atoms: C_5  and  C_7
REMARK    2  A    between atoms: C_7  and  C_15
REMARK    3  A    between atoms: C_10  and  O_29
REMARK    4  A    between atoms: C_10  and  O_30
REMARK    5  A    between atoms: C_13  and  C_18
REMARK    6  A    between atoms: C_15  and  O_29
REMARK    7  A    between atoms: C_16  and  C_20
REMARK    8  A    between atoms: C_17  and  C_21
REMARK    9  A    between atoms: C_20  and  O_28
REMARK   10  A    between atoms: C_21  and  O_30
REMARK                            x       y       z     vdW  Elec       q    Type
REMARK                         _______ _______ _______ _____ _____    ______ ____
ROOT
ATOM      1  C   UNL     1     137.836 152.153  93.930  0.00  0.00    +0.000 C 
ATOM      2  C   UNL     1     135.812 151.903  91.929  0.00  0.00    +0.000 C 
ATOM      3  C   UNL     1     137.339 152.498  93.370  0.00  0.00    +0.000 C 
ATOM      4  C   UNL     1     136.326 152.373  92.369  0.00  0.00    +0.000 C 
ATOM      5  C   UNL     1     137.356 153.314  93.251  0.00  0.00    +0.000 C 
ATOM      6  C   UNL     1     136.344 153.189  92.250  0.00  0.00    +0.000 C 
ATOM      7  C   UNL     1     136.859 153.660  92.691  0.00  0.00    +0.000 C 
ATOM      8  N   UNL     1     136.824 152.028  92.930  0.00  0.00    +0.000 NA
ENDROOT
BRANCH   7  12
ATOM      9  C   UNL     1     137.399 155.616  91.884  0.00  0.00    +0.000 A 
ATOM     10  C   UNL     1     137.382 154.800  92.004  0.00  0.00    +0.000 A 
ATOM     11  C   UNL     1     136.911 156.109  92.332  0.00  0.00    +0.000 A 
ATOM     12  C   UNL     1     136.876 154.476  92.571  0.00  0.00    +0.000 A 
ATOM     13  C   UNL     1     136.406 155.786  92.898  0.00  0.00    +0.000 A 
ATOM     14  C   UNL     1     136.389 154.970  93.017  0.00  0.00    +0.000 A 
ATOM     15 CL   UNL     1     135.918 156.278  93.344  0.00  0.00    +0.000 Cl
ATOM     16 CL   UNL     1     135.884 154.646  93.583  0.00  0.00    +0.000 Cl
ENDBRANCH   7  12
BRANCH   5  17
ATOM     17  C   UNL     1     137.870 153.786  93.691  0.00  0.00    +0.000 C 
ATOM     18  O   UNL     1     138.081 154.393  94.207  0.00  0.00    +0.000 OA
BRANCH  17  20
ATOM     19  C   UNL     1     139.172 153.933  94.265  0.00  0.00    +0.000 C 
ATOM     20  O   UNL     1     138.683 153.642  93.667  0.00  0.00    +0.000 OA
ENDBRANCH  17  20
ENDBRANCH   5  17
BRANCH   6  21
ATOM     21  C   UNL     1     135.847 153.535  91.690  0.00  0.00    +0.000 C 
ATOM     22  O   UNL     1     135.108 153.824  91.916  0.00  0.00    +0.000 OA
BRANCH  21  23
ATOM     23  O   UNL     1     136.089 153.592  90.903  0.00  0.00    +0.000 OA
BRANCH  23  24
ATOM     24  C   UNL     1     135.528 153.602  90.298  0.00  0.00    +0.000 C 
BRANCH  24  25
ATOM     25  O   UNL     1     135.771 153.642  89.510  0.00  0.00    +0.000 OA
BRANCH  25  26
ATOM     26  C   UNL     1     135.218 153.786  88.916  0.00  0.00    +0.000 C 
ATOM     27  O   UNL     1     134.532 153.329  88.870  0.00  0.00    +0.000 OA
BRANCH  26  28
ATOM     28  C   UNL     1     135.351 154.387  88.366  0.00  0.00    +0.000 C 
BRANCH  28  30
ATOM     29  C   UNL     1     135.431 154.814  87.005  0.00  0.00    +0.000 C 
ATOM     30  C   UNL     1     135.199 154.256  87.566  0.00  0.00    +0.000 C 
ENDBRANCH  28  30
ENDBRANCH  26  28
ENDBRANCH  25  26
ENDBRANCH  24  25
ENDBRANCH  23  24
ENDBRANCH  21  23
ENDBRANCH   6  21
TORSDOF 10
ENDMDL
