REMARK  Name = 
REMARK  8 active torsions:
REMARK  status: ('A' for Active; 'I' for Inactive)
REMARK    1  A    between atoms: N_2  and  C_7
REMARK    2  A    between atoms: N_3  and  C_13
REMARK    3  A    between atoms: N_5  and  C_6
REMARK    4  A    between atoms: N_5  and  C_11
REMARK    5  A    between atoms: O_8  and  C_10
REMARK    6  A    between atoms: O_8  and  C_12
REMARK    7  A    between atoms: C_9  and  C_11
REMARK    8  A    between atoms: C_9  and  C_12
REMARK                            x       y       z     vdW  Elec       q    Type
REMARK                         _______ _______ _______ _____ _____    ______ ____
ROOT
ATOM      1  C   UNL     1      -2.746  -1.163   0.000  0.00  0.00    +0.000 A 
ATOM      2  C   UNL     1      -2.746   1.583   0.000  0.00  0.00    +0.000 A 
ATOM      3  C   UNL     1      -3.921  -0.479   0.000  0.00  0.00    +0.000 A 
ATOM      4  C   UNL     1      -1.562  -0.479   0.000  0.00  0.00    +0.000 A 
ATOM      5  C   UNL     1      -3.921   0.896   0.000  0.00  0.00    +0.000 A 
ATOM      6  C   UNL     1      -1.562   0.896   0.000  0.00  0.00    +0.000 A 
ENDROOT
BRANCH   1   8
ATOM      7  C   UNL     1      -1.575  -3.204   0.000  0.00  0.00    +0.000 C 
ATOM      8  N   UNL     1      -2.746  -2.517   0.000  0.00  0.00    +0.000 NA
ATOM      9  N   UNL     1      -0.396  -2.517   0.000  0.00  0.00    +0.000 NA
ATOM     10  O   UNL     1      -1.587  -4.300   0.000  0.00  0.00    +0.000 OA
BRANCH   9  11
ATOM     11  C   UNL     1       0.742  -3.192   0.000  0.00  0.00    +0.000 C 
ATOM     12  C   UNL     1       0.742  -4.479   0.000  0.00  0.00    +0.000 C 
ATOM     13  C   UNL     1       1.854  -2.529   0.000  0.00  0.00    +0.000 C 
ATOM     14  C   UNL     1       1.867  -5.162   0.000  0.00  0.00    +0.000 C 
ATOM     15  C   UNL     1       3.004  -3.192   0.000  0.00  0.00    +0.000 C 
ATOM     16  C   UNL     1       3.017  -4.537   0.000  0.00  0.00    +0.000 C 
ENDBRANCH   9  11
ENDBRANCH   1   8
BRANCH   2  17
ATOM     17  O   UNL     1      -2.746   2.946   0.000  0.00  0.00    +0.000 OA
BRANCH  17  18
ATOM     18  C   UNL     1      -1.575   3.621   0.000  0.00  0.00    +0.000 C 
BRANCH  18  19
ATOM     19  C   UNL     1      -0.396   2.946   0.000  0.00  0.00    +0.000 C 
ATOM     20  O   UNL     1      -0.396   1.933   0.000  0.00  0.00    +0.000 OA
BRANCH  19  21
ATOM     21  C   UNL     1       0.792   3.621   0.000  0.00  0.00    +0.000 C 
BRANCH  21  22
ATOM     22  N   UNL     1       1.967   2.946   0.000  0.00  0.00    +0.000 NA
BRANCH  22  23
ATOM     23  C   UNL     1       3.125   3.596   0.000  0.00  0.00    +0.000 C 
ATOM     24  C   UNL     1       4.254   2.921   0.000  0.00  0.00    +0.000 C 
ATOM     25  C   UNL     1       3.929   4.954   0.000  0.00  0.00    +0.000 C 
ATOM     26  C   UNL     1       2.479   4.954   0.000  0.00  0.00    +0.000 C 
ENDBRANCH  22  23
ENDBRANCH  21  22
ENDBRANCH  19  21
ENDBRANCH  18  19
ENDBRANCH  17  18
ENDBRANCH   2  17
TORSDOF 8
