
     RDKit          2D

155160  0  0  1  0  0  0  0  0999 V2000
   -1.4625   -6.3708    0.0000 N   0  0  0  0  0  0  0  0  0  0  0  0
   -2.0745   -6.7250    0.0000 C   0  0  0  0  0  0  0  0  0  0  0  0
   -2.6907   -6.3708    0.0000 C   0  0  0  0  0  0  0  0  0  0  0  0
   -2.6907   -5.6625    0.0000 O   0  0  0  0  0  0  0  0  0  0  0  0
   -2.0745   -7.4333    0.0000 C   0  0  0  0  0  0  0  0  0  0  0  0
   -2.6907   -7.7875    0.0000 C   0  0  0  0  0  0  0  0  0  0  0  0
   -2.6907   -8.4958    0.0000 C   0  0  0  0  0  0  0  0  0  0  0  0
   -3.3027   -7.4333    0.0000 C   0  0  0  0  0  0  0  0  0  0  0  0
    0.3792   -6.7250    0.0000 N   0  0  0  0  0  0  0  0  0  0  0  0
   -0.2329   -6.3708    0.0000 C   0  0  0  0  0  0  0  0  0  0  0  0
   -0.8490   -6.7250    0.0000 C   0  0  0  0  0  0  0  0  0  0  0  0
   -0.8490   -7.4333    0.0000 O   0  0  0  0  0  0  0  0  0  0  0  0
   -0.2329   -5.6625    0.0000 C   0  0  0  0  0  0  0  0  0  0  0  0
   -0.8490   -4.6000    0.0000 C   0  0  0  0  0  0  0  0  0  0  0  0
   -1.4611   -4.2458    0.0000 C   0  0  0  0  0  0  0  0  0  0  0  0
   -2.0731   -4.6000    0.0000 C   0  0  0  0  0  0  0  0  0  0  0  0
   -2.0731   -5.3083    0.0000 C   0  0  0  0  0  0  0  0  0  0  0  0
   -1.4611   -5.6625    0.0000 C   0  0  0  0  0  0  0  0  0  0  0  0
   -0.8490   -5.3083    0.0000 C   0  0  0  0  0  0  0  0  0  0  0  0
   -2.6893   -4.2458    0.0000 O   0  0  0  0  0  0  0  0  0  0  0  0
    2.2212   -6.3744    0.0000 N   0  0  0  0  0  0  0  0  0  0  0  0
    1.6092   -6.7286    0.0000 C   0  0  0  0  0  0  0  0  0  0  0  0
    0.9930   -6.3744    0.0000 C   0  0  0  0  0  0  0  0  0  0  0  0
    0.9930   -5.6661    0.0000 O   0  0  0  0  0  0  0  0  0  0  0  0
    1.6092   -7.4369    0.0000 C   0  0  0  0  0  0  0  0  0  0  0  0
    0.9930   -7.7911    0.0000 C   0  0  0  0  0  0  0  0  0  0  0  0
    0.9930   -8.4994    0.0000 C   0  0  0  0  0  0  0  0  0  0  0  0
    0.3810   -8.8536    0.0000 O   0  0  0  0  0  0  0  0  0  0  0  0
    1.6092   -8.8536    0.0000 O   0  0  0  0  0  0  0  0  0  0  0  0
    4.0625   -6.7292    0.0000 N   0  0  0  0  0  0  0  0  0  0  0  0
    3.4505   -6.3750    0.0000 C   0  0  0  0  0  0  0  0  0  0  0  0
    2.8343   -6.7292    0.0000 C   0  0  0  0  0  0  0  0  0  0  0  0
    2.8343   -7.4375    0.0000 O   0  0  0  0  0  0  0  0  0  0  0  0
    3.4505   -5.6667    0.0000 C   0  0  0  0  0  0  0  0  0  0  0  0
    2.8343   -5.3125    0.0000 C   0  0  0  0  0  0  0  0  0  0  0  0
    2.8343   -4.6042    0.0000 C   0  0  0  0  0  0  0  0  0  0  0  0
    2.2223   -4.2500    0.0000 O   0  0  0  0  0  0  0  0  0  0  0  0
    3.4505   -4.2500    0.0000 O   0  0  0  0  0  0  0  0  0  0  0  0
    4.3186   -4.5778    0.0000 C   0  0  0  0  0  0  0  0  0  0  0  0
    5.0269   -4.5778    0.0000 C   0  0  0  0  0  0  0  0  0  0  0  0
    5.2462   -5.2494    0.0000 N   0  0  0  0  0  0  0  0  0  0  0  0
    4.6727   -5.6695    0.0000 C   0  0  0  0  0  0  0  0  0  0  0  0
    4.0994   -5.2494    0.0000 C   0  0  0  0  0  0  0  0  0  0  0  0
    7.0875   -5.6042    0.0000 N   0  0  0  0  0  0  0  0  0  0  0  0
    6.4755   -5.2500    0.0000 C   0  0  0  0  0  0  0  0  0  0  0  0
    5.8593   -5.6042    0.0000 C   0  0  0  0  0  0  0  0  0  0  0  0
    5.8593   -6.3125    0.0000 O   0  0  0  0  0  0  0  0  0  0  0  0
    6.4755   -4.5417    0.0000 C   0  0  0  0  0  0  0  0  0  0  0  0
    5.8593   -4.1875    0.0000 C   0  0  0  0  0  0  0  0  0  0  0  0
    7.0875   -4.1875    0.0000 C   0  0  0  0  0  0  0  0  0  0  0  0
    7.0875   -3.4792    0.0000 C   0  0  0  0  0  0  0  0  0  0  0  0
    8.9254   -5.2536    0.0000 N   0  0  0  0  0  0  0  0  0  0  0  0
    8.3134   -5.6077    0.0000 C   0  0  0  0  0  0  0  0  0  0  0  0
    7.6972   -5.2536    0.0000 C   0  0  0  0  0  0  0  0  0  0  0  0
    7.6972   -4.5452    0.0000 O   0  0  0  0  0  0  0  0  0  0  0  0
    8.3134   -6.3161    0.0000 C   0  0  0  0  0  0  0  0  0  0  0  0
    7.6972   -6.6702    0.0000 C   0  0  0  0  0  0  0  0  0  0  0  0
    7.6972   -7.3786    0.0000 C   0  0  0  0  0  0  0  0  0  0  0  0
    7.0851   -7.7327    0.0000 O   0  0  0  0  0  0  0  0  0  0  0  0
    8.3134   -7.7327    0.0000 O   0  0  0  0  0  0  0  0  0  0  0  0
   10.7667   -5.6083    0.0000 N   0  0  0  0  0  0  0  0  0  0  0  0
   10.1546   -5.2542    0.0000 C   0  0  0  0  0  0  0  0  0  0  0  0
    9.5385   -5.6083    0.0000 C   0  0  0  0  0  0  0  0  0  0  0  0
    9.5385   -6.3167    0.0000 O   0  0  0  0  0  0  0  0  0  0  0  0
   10.1546   -4.5458    0.0000 C   0  0  0  0  0  0  0  0  0  0  0  0
    9.5385   -4.1917    0.0000 C   0  0  0  0  0  0  0  0  0  0  0  0
    9.5385   -3.4833    0.0000 C   0  0  0  0  0  0  0  0  0  0  0  0
    8.9264   -3.1292    0.0000 O   0  0  0  0  0  0  0  0  0  0  0  0
   10.1546   -3.1292    0.0000 O   0  0  0  0  0  0  0  0  0  0  0  0
   12.6048   -5.2502    0.0000 N   0  0  0  0  0  0  0  0  0  0  0  0
   11.9928   -5.6044    0.0000 C   0  0  0  0  0  0  0  0  0  0  0  0
   11.3766   -5.2502    0.0000 C   0  0  0  0  0  0  0  0  0  0  0  0
   11.3766   -4.5419    0.0000 O   0  0  0  0  0  0  0  0  0  0  0  0
   11.9928   -6.3127    0.0000 C   0  0  0  0  0  0  0  0  0  0  0  0
   11.3766   -7.3752    0.0000 C   0  0  0  0  0  0  0  0  0  0  0  0
   10.7646   -7.7294    0.0000 C   0  0  0  0  0  0  0  0  0  0  0  0
   10.1525   -7.3752    0.0000 C   0  0  0  0  0  0  0  0  0  0  0  0
   10.1525   -6.6669    0.0000 C   0  0  0  0  0  0  0  0  0  0  0  0
   10.7646   -6.3127    0.0000 C   0  0  0  0  0  0  0  0  0  0  0  0
   11.3766   -6.6669    0.0000 C   0  0  0  0  0  0  0  0  0  0  0  0
   13.2452   -3.4878    0.0000 N   0  0  0  0  0  0  0  0  0  0  0  0
   13.2351   -4.1948    0.0000 C   0  0  0  0  0  0  0  0  0  0  0  0
   12.6149   -4.5419    0.0000 C   0  0  0  0  0  0  0  0  0  0  0  0
   12.0070   -4.1784    0.0000 O   0  0  0  0  0  0  0  0  0  0  0  0
   13.8431   -4.5584    0.0000 C   0  0  0  0  0  0  0  0  0  0  0  0
   13.8308   -5.2690    0.0000 C   0  0  0  0  0  0  0  0  0  0  0  0
   14.4388   -5.6325    0.0000 O   0  0  0  0  0  0  0  0  0  0  0  0
   13.2128   -5.6125    0.0000 O   0  0  0  0  0  0  0  0  0  0  0  0
   12.0241   -2.0732    0.0000 N   0  0  0  0  0  0  0  0  0  0  0  0
   12.6306   -2.4226    0.0000 C   0  0  0  0  0  0  0  0  0  0  0  0
   12.6317   -3.1337    0.0000 C   0  0  0  0  0  0  0  0  0  0  0  0
   12.0178   -3.4871    0.0000 O   0  0  0  0  0  0  0  0  0  0  0  0
   10.1828   -2.4280    0.0000 N   0  0  0  0  0  0  0  0  0  0  0  0
   10.7948   -2.0738    0.0000 C   0  0  0  0  0  0  0  0  0  0  0  0
   11.4110   -2.4280    0.0000 C   0  0  0  0  0  0  0  0  0  0  0  0
   11.4110   -3.1363    0.0000 O   0  0  0  0  0  0  0  0  0  0  0  0
   10.7948   -1.3655    0.0000 C   0  0  0  0  0  0  0  0  0  0  0  0
   11.4110   -1.0113    0.0000 C   0  0  0  0  0  0  0  0  0  0  0  0
   11.4110   -0.3030    0.0000 O   0  0  0  0  0  0  0  0  0  0  0  0
   12.0230   -1.3655    0.0000 N   0  0  0  0  0  0  0  0  0  0  0  0
    8.3415   -2.0732    0.0000 N   0  0  0  0  0  0  0  0  0  0  0  0
    8.9535   -2.4274    0.0000 C   0  0  0  0  0  0  0  0  0  0  0  0
    9.5697   -2.0732    0.0000 C   0  0  0  0  0  0  0  0  0  0  0  0
    9.5697   -1.3649    0.0000 O   0  0  0  0  0  0  0  0  0  0  0  0
    6.5002   -2.4280    0.0000 N   0  0  0  0  0  0  0  0  0  0  0  0
    7.1122   -2.0738    0.0000 C   0  0  0  0  0  0  0  0  0  0  0  0
    7.7284   -2.4280    0.0000 C   0  0  0  0  0  0  0  0  0  0  0  0
    7.7284   -3.1363    0.0000 O   0  0  0  0  0  0  0  0  0  0  0  0
    4.6589   -2.0732    0.0000 N   0  0  0  0  0  0  0  0  0  0  0  0
    5.2709   -2.4274    0.0000 C   0  0  0  0  0  0  0  0  0  0  0  0
    5.8871   -2.0732    0.0000 C   0  0  0  0  0  0  0  0  0  0  0  0
    5.8871   -1.3649    0.0000 O   0  0  0  0  0  0  0  0  0  0  0  0
    2.8176   -2.4280    0.0000 N   0  0  0  0  0  0  0  0  0  0  0  0
    3.4296   -2.0738    0.0000 C   0  0  0  0  0  0  0  0  0  0  0  0
    4.0458   -2.4280    0.0000 C   0  0  0  0  0  0  0  0  0  0  0  0
    4.0458   -3.1363    0.0000 O   0  0  0  0  0  0  0  0  0  0  0  0
    1.8625   -0.2666    0.0000 C   0  0  0  0  0  0  0  0  0  0  0  0
    2.5708   -0.2666    0.0000 C   0  0  0  0  0  0  0  0  0  0  0  0
    2.7901   -0.9383    0.0000 C   0  0  0  0  0  0  0  0  0  0  0  0
    2.2166   -1.3583    0.0000 C   0  0  0  0  0  0  0  0  0  0  0  0
    1.6433   -0.9383    0.0000 N   0  0  0  0  0  0  0  0  0  0  0  0
   -0.2000   -1.2958    0.0000 N   0  0  0  0  0  0  0  0  0  0  0  0
    0.4120   -0.9417    0.0000 C   0  0  0  0  0  0  0  0  0  0  0  0
    1.0282   -1.2958    0.0000 C   0  0  0  0  0  0  0  0  0  0  0  0
    1.0282   -2.0042    0.0000 O   0  0  0  0  0  0  0  0  0  0  0  0
    0.4120   -0.2333    0.0000 C   0  0  0  0  0  0  0  0  0  0  0  0
    1.0282    0.1208    0.0000 C   0  0  0  0  0  0  0  0  0  0  0  0
    1.0282    0.8292    0.0000 C   0  0  0  0  0  0  0  0  0  0  0  0
    1.6402    1.1833    0.0000 N   0  0  0  0  0  0  0  0  0  0  0  0
    1.6402    1.8917    0.0000 C   0  0  0  0  0  0  0  0  0  0  0  0
    2.2522    2.2458    0.0000 N   0  0  0  0  0  0  0  0  0  0  0  0
    1.0282    2.2458    0.0000 N   0  0  0  0  0  0  0  0  0  0  0  0
   -1.1542    0.8667    0.0000 C   0  0  0  0  0  0  0  0  0  0  0  0
   -0.4459    0.8667    0.0000 C   0  0  0  0  0  0  0  0  0  0  0  0
   -0.2266    0.1951    0.0000 C   0  0  0  0  0  0  0  0  0  0  0  0
   -0.8000   -0.2250    0.0000 C   0  0  0  0  0  0  0  0  0  0  0  0
   -1.3734    0.1951    0.0000 N   0  0  0  0  0  0  0  0  0  0  0  0
   -3.2167   -0.1583    0.0000 N   0  0  0  0  0  0  0  0  0  0  0  0
   -2.6046    0.1958    0.0000 C   0  0  0  0  0  0  0  0  0  0  0  0
   -1.9885   -0.1583    0.0000 C   0  0  0  0  0  0  0  0  0  0  0  0
   -1.9885   -0.8667    0.0000 O   0  0  0  0  0  0  0  0  0  0  0  0
   -2.6120    0.9042    0.0000 C   0  0  0  0  0  0  0  0  0  0  0  0
   -3.2282    1.9667    0.0000 C   0  0  0  0  0  0  0  0  0  0  0  0
   -3.8402    2.3208    0.0000 C   0  0  0  0  0  0  0  0  0  0  0  0
   -4.4522    1.9667    0.0000 C   0  0  0  0  0  0  0  0  0  0  0  0
   -4.4522    1.2583    0.0000 C   0  0  0  0  0  0  0  0  0  0  0  0
   -3.8402    0.9042    0.0000 C   0  0  0  0  0  0  0  0  0  0  0  0
   -3.2282    1.2583    0.0000 C   0  0  0  0  0  0  0  0  0  0  0  0
   -0.8083   -0.9333    0.0000 C   0  0  0  0  0  0  0  0  0  0  0  0
   -1.4259   -1.2803    0.0000 O   0  0  0  0  0  0  0  0  0  0  0  0
    2.2083   -2.0667    0.0000 C   0  0  0  0  0  0  0  0  0  0  0  0
    1.5908   -2.4136    0.0000 O   0  0  0  0  0  0  0  0  0  0  0  0
    4.6727   -6.3778    0.0000 C   0  0  0  0  0  0  0  0  0  0  0  0
    5.2861   -6.7320    0.0000 O   0  0  0  0  0  0  0  0  0  0  0  0
   -3.3038   -6.7256    0.0000 O   0  0  0  0  0  0  0  0  0  0  0  0
 43 39  1  0
  6  8  1  0
  2  1  1  1
  2  3  1  0
  3  4  2  0
 82 81  1  1
 82 83  1  0
 83 84  2  0
 82 85  1  0
 85 86  1  0
 86 87  2  0
 86 88  1  0
 10  9  1  6
 22 21  1  1
 22 23  1  0
 45 44  1  6
 89 90  1  0
 90 91  1  0
 91 92  2  0
 45 46  1  0
 46 47  2  0
 45 48  1  0
 48 49  1  1
 48 50  1  0
 50 51  1  0
 23 24  2  0
 94 93  1  1
 94 95  1  0
 95 96  2  0
 94 97  1  0
 97 98  1  0
 98 99  2  0
 98100  1  0
 22 25  1  0
 25 26  1  0
 26 27  1  0
 27 28  1  0
101102  1  0
102103  1  0
103104  2  0
 27 29  2  0
 10 11  1  0
 11 12  2  0
 10 13  1  0
105106  1  0
106107  1  0
107108  2  0
 13 19  1  0
 53 52  1  1
 53 54  1  0
 54 55  2  0
109110  1  0
110111  1  0
111112  2  0
 53 56  1  0
 56 57  1  0
 57 58  1  0
 58 59  1  0
113114  1  0
114115  1  0
115116  2  0
117118  1  0
 58 60  2  0
 19 14  1  0
 14 15  2  0
 15 16  1  0
 16 17  2  0
118119  1  0
119120  1  0
120121  1  0
121117  1  0
 17 18  1  0
 31 30  1  6
 31 32  1  0
 32 33  2  0
 31 34  1  0
 62 61  1  6
 62 63  1  0
 63 64  2  0
 62 65  1  0
 65 66  1  0
 66 67  1  0
123122  1  1
123124  1  0
124125  2  0
123126  1  0
126127  1  0
127128  1  0
128129  1  0
129130  1  0
130131  1  0
130132  2  0
133134  1  0
 67 68  1  0
 67 69  2  0
 34 35  1  0
 35 36  1  0
 36 37  1  0
134135  1  0
135136  1  0
136137  1  0
137133  1  0
 36 38  2  0
 39 40  1  0
 18 19  2  0
 16 20  1  0
139138  1  6
139140  1  0
140141  2  0
  2  5  1  0
  5  6  1  0
  6  7  1  0
 40 41  1  0
 71 70  1  1
 71 72  1  0
 72 73  2  0
142148  1  0
148143  1  0
143144  2  0
144145  1  0
145146  2  0
146147  1  0
147148  2  0
139142  1  0
140137  1  0
 71 74  1  0
136149  1  1
 74 80  1  0
149150  2  0
149122  1  0
 80 75  1  0
124121  1  0
 75 76  2  0
120151  1  1
 76 77  1  0
151152  2  0
151113  1  0
 77 78  2  0
115109  1  0
111105  1  0
107101  1  0
103 93  1  0
 95 89  1  0
 91 81  1  0
 83 70  1  0
 72 61  1  0
 63 52  1  0
 54 44  1  0
 46 41  1  0
 78 79  1  0
 42153  1  6
153 30  1  0
 79 80  2  0
153154  2  0
 41 42  1  0
 32 21  1  0
 23  9  1  0
 11  1  1  0
 42 43  1  0
  3155  1  0
M  END


> <chembl_id>
CHEMBL2103749

> <chembl_pref_name>
BIVALIRUDIN
