
     RDKit          2D

 27 25  0  0  0  0  0  0  0  0999 V2000
    3.0348   -2.3866    0.0000 Mg  0  0  0  0  0 15  0  0  0  0  0  0
    0.8038    1.9594    0.0000 P   0  0  0  0  0  0  0  0  0  0  0  0
    0.8038    1.1344    0.0000 O   0  0  0  0  0  0  0  0  0  0  0  0
   -1.3396   -1.7531    0.0000 O   0  0  0  0  0  0  0  0  0  0  0  0
   -2.0541   -0.5156    0.0000 O   0  0  0  0  0  0  0  0  0  0  0  0
    0.8038    2.7844    0.0000 O   0  0  0  0  0  0  0  0  0  0  0  0
   -0.0212    1.9594    0.0000 O   0  0  0  0  0  0  0  0  0  0  0  0
    1.6288    1.9594    0.0000 O   0  0  0  0  0  0  0  0  0  0  0  0
    0.8038   -1.3406    0.0000 N   0  0  0  0  0  0  0  0  0  0  0  0
    0.0893   -0.1031    0.0000 C   0  0  0  0  0  0  0  0  0  0  0  0
   -0.6252   -0.5156    0.0000 C   0  0  0  0  0  0  0  0  0  0  0  0
    0.0893    0.7219    0.0000 C   0  0  0  0  0  0  0  0  0  0  0  0
   -0.6252   -1.3406    0.0000 C   0  0  0  0  0  0  0  0  0  0  0  0
    0.0893   -1.7531    0.0000 C   0  0  0  0  0  0  0  0  0  0  0  0
    0.8038   -0.5156    0.0000 C   0  0  0  0  0  0  0  0  0  0  0  0
    0.0893   -2.5781    0.0000 C   0  0  0  0  0  0  0  0  0  0  0  0
   -1.3396   -0.1031    0.0000 C   0  0  0  0  0  0  0  0  0  0  0  0
    3.7502    0.2652    0.0000 O   0  0  0  0  0  0  0  0  0  0  0  0
    4.4647   -0.9723    0.0000 O   0  0  0  0  0  0  0  0  0  0  0  0
    8.0370    0.2652    0.0000 O   0  0  0  0  0  0  0  0  0  0  0  0
    5.1792    1.0902    0.0000 N   0  0  0  0  0  0  0  0  0  0  0  0
    7.3226   -0.9723    0.0000 N   0  0  0  0  0  0  0  0  0  0  0  0
    5.8936   -0.1473    0.0000 C   0  0  0  0  0  0  0  0  0  0  0  0
    5.1792    0.2652    0.0000 C   0  0  0  0  0  0  0  0  0  0  0  0
    6.6081    0.2652    0.0000 C   0  0  0  0  0  0  0  0  0  0  0  0
    4.4647   -0.1473    0.0000 C   0  0  0  0  0  0  0  0  0  0  0  0
    7.3226   -0.1473    0.0000 C   0  0  0  0  0  0  0  0  0  0  0  0
  2  3  1  0
  2  6  1  0
  2  7  1  0
  2  8  2  0
  3 12  1  0
  4 13  1  0
  5 17  2  0
  9 14  2  0
  9 15  1  0
 10 11  1  0
 10 12  1  0
 10 15  2  0
 11 13  2  0
 11 17  1  0
 13 14  1  0
 14 16  1  0
 18 26  1  0
 19 26  2  0
 20 27  2  0
 24 21  1  1
 22 27  1  0
 23 24  1  0
 23 25  1  0
 24 26  1  0
 25 27  1  0
M  CHG  3   1   2   6  -1  18  -1
M  END


> <chembl_id>
CHEMBL3707338

> <chembl_pref_name>
MAGNESIUM PYRIDOXAL 5-PHOSPHATE GLUTAMATE
