
     RDKit          2D

 36 39  0  0  1  0  0  0  0  0999 V2000
   -0.9458   -1.1750    0.0000 C   0  0  0  0  0  0  0  0  0  0  0  0
   -2.3333   -1.1667    0.0000 C   0  0  0  0  0  0  0  0  0  0  0  0
   -1.6333   -0.7667    0.0000 C   0  0  0  0  0  0  0  0  0  0  0  0
   -0.9625   -1.9542    0.0000 C   0  0  0  0  0  0  0  0  0  0  0  0
   -2.3333   -1.9417    0.0000 C   0  0  0  0  0  0  0  0  0  0  0  0
   -0.2708   -0.7667    0.0000 C   0  0  0  0  0  0  0  0  0  0  0  0
   -1.6458   -2.3500    0.0000 N   0  0  0  0  0  0  0  0  0  0  0  0
   -0.3083    1.6208    0.0000 N   0  0  0  0  0  0  0  0  0  0  0  0
   -1.6333    0.0333    0.0000 C   0  0  0  0  0  0  0  0  0  0  0  0
   -3.0208   -0.7667    0.0000 C   0  0  0  0  0  0  0  0  0  0  0  0
    2.1292   -0.0042    0.0000 N   0  0  0  0  0  0  0  0  0  0  0  0
   -0.9750    1.2208    0.0000 C   0  0  0  0  0  0  0  0  0  0  0  0
    0.4417   -1.1042    0.0000 O   0  0  0  0  0  0  0  0  0  0  0  0
   -0.9625    0.4375    0.0000 C   0  0  0  0  0  0  0  0  0  0  0  0
    0.3750    1.2458    0.0000 O   0  0  0  0  0  0  0  0  0  0  0  0
   -0.3208    2.4083    0.0000 O   0  0  0  0  0  0  0  0  0  0  0  0
   -0.2708    0.1958    0.0000 O   0  0  0  0  0  0  0  0  0  0  0  0
    1.0042   -0.5542    0.0000 C   0  0  0  0  0  0  0  0  0  0  0  0
   -2.9875    0.0125    0.0000 O   0  0  0  0  0  0  0  0  0  0  0  0
    1.7417   -0.6625    0.0000 C   0  0  0  0  0  0  0  0  0  0  0  0
    2.9167    0.0500    0.0000 C   0  0  0  0  0  0  0  0  0  0  0  0
    0.8917    0.2583    0.0000 C   0  0  0  0  0  0  0  0  0  0  0  0
    1.6250    0.6125    0.0000 C   0  0  0  0  0  0  0  0  0  0  0  0
   -3.7208   -1.1375    0.0000 O   0  0  0  0  0  0  0  0  0  0  0  0
   -3.0083   -2.3375    0.0000 C   0  0  0  0  0  0  0  0  0  0  0  0
   -0.2875   -2.3542    0.0000 C   0  0  0  0  0  0  0  0  0  0  0  0
   -2.3125    0.4125    0.0000 C   0  0  0  0  0  0  0  0  0  0  0  0
    3.2375   -0.6667    0.0000 C   0  0  0  0  0  0  0  0  0  0  0  0
   -1.6583    1.6000    0.0000 C   0  0  0  0  0  0  0  0  0  0  0  0
   -2.3333    1.1958    0.0000 C   0  0  0  0  0  0  0  0  0  0  0  0
   -4.3458   -0.6542    0.0000 C   0  0  0  0  0  0  0  0  0  0  0  0
    4.0250   -0.7542    0.0000 C   0  0  0  0  0  0  0  0  0  0  0  0
    2.7667   -1.3125    0.0000 C   0  0  0  0  0  0  0  0  0  0  0  0
    4.3417   -1.4792    0.0000 C   0  0  0  0  0  0  0  0  0  0  0  0
    3.0875   -2.0292    0.0000 C   0  0  0  0  0  0  0  0  0  0  0  0
    3.8792   -2.1167    0.0000 C   0  0  0  0  0  0  0  0  0  0  0  0
  2  3  1  0
  3  1  1  0
  4  1  2  0
  5  7  1  0
  6  1  1  0
  7  4  1  0
  8 12  1  0
  3  9  1  6
 10  2  1  0
 11 20  1  0
 12 14  2  0
 13  6  1  0
 14  9  1  0
 15  8  1  0
 16  8  2  0
 17  6  2  0
 18 13  1  1
 19 10  2  0
 20 18  1  0
 21 11  1  0
 22 18  1  0
 23 22  1  0
 24 10  1  0
 25  5  1  0
 26  4  1  0
 27  9  2  0
 28 21  1  0
 29 30  2  0
 30 27  1  0
 31 24  1  0
 32 28  1  0
 33 28  2  0
 34 32  2  0
 35 33  1  0
 36 35  2  0
  2  5  2  0
 11 23  1  0
 12 29  1  0
 34 36  1  0
M  CHG  2   8   1  15  -1
M  END


> <chembl_id>
CHEMBL2103761

> <chembl_pref_name>
BARNIDIPINE
