REMARK  Name = 
REMARK  8 active torsions:
REMARK  status: ('A' for Active; 'I' for Inactive)
REMARK    1  A    between atoms: C_1  and  C_2
REMARK    2  A    between atoms: C_1  and  O_4
REMARK    3  A    between atoms: C_2  and  C_3
REMARK    4  A    between atoms: C_3  and  O_5
REMARK    5  A    between atoms: C_3  and  C_12
REMARK    6  A    between atoms: O_4  and  N_6
REMARK    7  A    between atoms: O_5  and  N_9
REMARK    8  A    between atoms: C_12  and  C_13
REMARK                            x       y       z     vdW  Elec       q    Type
REMARK                         _______ _______ _______ _____ _____    ______ ____
ROOT
ATOM      1  C   UNL     1       0.825   0.000   0.000  0.00  0.00    +0.000 C 
ATOM      2  C   UNL     1       0.000   0.000   0.000  0.00  0.00    +0.000 C 
ENDROOT
BRANCH   1   3
ATOM      3  C   UNL     1       0.825  -0.825   0.000  0.00  0.00    +0.000 C 
BRANCH   3   4
ATOM      4  C   UNL     1       1.540  -1.238   0.000  0.00  0.00    +0.000 C 
BRANCH   4   5
ATOM      5  O   UNL     1       2.254  -0.825   0.000  0.00  0.00    +0.000 OA
BRANCH   5   6
ATOM      6  N   UNL     1       2.968  -1.238   0.000  0.00  0.00    +0.000 N 
ATOM      7  O   UNL     1       3.683  -0.825   0.000  0.00  0.00    +0.000 OA
ATOM      8  O   UNL     1       2.968  -2.062   0.000  0.00  0.00    +0.000 OA
ENDBRANCH   5   6
ENDBRANCH   4   5
ENDBRANCH   3   4
ENDBRANCH   1   3
BRANCH   1   9
ATOM      9  O   UNL     1       0.825   0.825   0.000  0.00  0.00    +0.000 OA
BRANCH   9  10
ATOM     10  N   UNL     1       0.111   1.238   0.000  0.00  0.00    +0.000 N 
ATOM     11  O   UNL     1      -0.604   0.825   0.000  0.00  0.00    +0.000 OA
ATOM     12  O   UNL     1       0.111   2.062   0.000  0.00  0.00    +0.000 OA
ENDBRANCH   9  10
ENDBRANCH   1   9
BRANCH   1  13
ATOM     13  C   UNL     1       1.650   0.000   0.000  0.00  0.00    +0.000 C 
BRANCH  13  14
ATOM     14  C   UNL     1       2.062   0.715   0.000  0.00  0.00    +0.000 C 
ATOM     15  C   UNL     1       2.888   0.715   0.000  0.00  0.00    +0.000 C 
ENDBRANCH  13  14
ENDBRANCH   1  13
TORSDOF 8
