
     RDKit          2D

 10  9  0  0  0  0  0  0  0  0999 V2000
    2.9000   -0.0125    0.0000 C   0  0  0  0  0  0  0  0  0  0  0  0
   -2.1625   -0.1042    0.0000 N   0  0  0  0  0  0  0  0  0  0  0  0
    1.6167   -0.7667    0.0000 C   0  0  0  0  0  0  0  0  0  0  0  0
    4.1167   -0.7417    0.0000 O   0  0  0  0  0  0  0  0  0  0  0  0
    2.8875    1.3833    0.0000 O   0  0  0  0  0  0  0  0  0  0  0  0
   -0.8958   -0.8042    0.0000 N   0  0  0  0  0  0  0  0  0  0  0  0
    0.3625   -0.0750    0.0000 C   0  0  0  0  0  0  0  0  0  0  0  0
   -3.3208    0.5833    0.0000 C   0  0  0  0  0  0  0  0  0  0  0  0
   -3.3833   -0.8042    0.0000 C   0  0  0  0  0  0  0  0  0  0  0  0
   -2.1500    1.3833    0.0000 C   0  0  0  0  0  0  0  0  0  0  0  0
  2  6  1  0
  3  1  1  0
  4  1  1  0
  5  1  2  0
  6  7  1  0
  7  3  1  0
  8  2  1  0
  9  2  1  0
 10  2  1  0
M  CHG  2   2   1   4  -1
M  END


> <chembl_id>
CHEMBL2104708

> <chembl_pref_name>
MELDONIUM
