MODEL 1
REMARK VINA RESULT:     -10.4      0.000      0.000
REMARK  Name = 
REMARK  2 active torsions:
REMARK  status: ('A' for Active; 'I' for Inactive)
REMARK    1  A    between atoms: S_1  and  C_2
REMARK    2  A    between atoms: C_11  and  C_17
REMARK                            x       y       z     vdW  Elec       q    Type
REMARK                         _______ _______ _______ _____ _____    ______ ____
ROOT
ATOM      1  C   UNL     1     113.504 132.858 112.901  0.00  0.00    +0.000 A 
ATOM      2  C   UNL     1     112.549 133.271 112.295  0.00  0.00    +0.000 A 
ATOM      3  C   UNL     1     112.277 133.628 111.751  0.00  0.00    +0.000 C 
ATOM      4  C   UNL     1     112.115 132.973 112.774  0.00  0.00    +0.000 A 
ATOM      5  N   UNL     1     111.577 133.692 111.678  0.00  0.00    +0.000 NA
ATOM      6  C   UNL     1     113.242 133.210 112.364  0.00  0.00    +0.000 A 
ATOM      7  N   UNL     1     111.409 133.031 112.711  0.00  0.00    +0.000 NA
ATOM      8  C   UNL     1     113.071 132.559 113.381  0.00  0.00    +0.000 A 
ATOM      9  C   UNL     1     112.374 132.613 113.323  0.00  0.00    +0.000 A 
ATOM     10  C   UNL     1     111.144 133.394 112.158  0.00  0.00    +0.000 C 
ATOM     11  O   UNL     1     112.711 133.927 111.271  0.00  0.00    +0.000 OA
ATOM     12 CL   UNL     1     113.335 132.197 113.933  0.00  0.00    +0.000 Cl
ENDROOT
BRANCH   1  13
ATOM     13  S   UNL     1     114.206 132.793 112.976  0.00  0.00    +0.000 S 
ATOM     14  O   UNL     1     114.203 132.229 112.548  0.00  0.00    +0.000 OA
ATOM     15  O   UNL     1     114.812 132.450 112.823  0.00  0.00    +0.000 OA
ATOM     16  N   UNL     1     114.564 133.249 113.385  0.00  0.00    +0.000 NA
ENDBRANCH   1  13
BRANCH  10  17
ATOM     17  C   UNL     1     110.438 133.452 112.094  0.00  0.00    +0.000 C 
ATOM     18  C   UNL     1     110.135 134.096 112.067  0.00  0.00    +0.000 C 
ENDBRANCH  10  17
TORSDOF 2
ENDMDL
MODEL 2
REMARK VINA RESULT:      -8.0     86.077     87.039
REMARK  Name = 
REMARK  2 active torsions:
REMARK  status: ('A' for Active; 'I' for Inactive)
REMARK    1  A    between atoms: S_1  and  C_2
REMARK    2  A    between atoms: C_11  and  C_17
REMARK                            x       y       z     vdW  Elec       q    Type
REMARK                         _______ _______ _______ _____ _____    ______ ____
ROOT
ATOM      1  C   UNL     1     126.749 108.958 195.538  0.00  0.00    +0.000 A 
ATOM      2  C   UNL     1     126.440 110.117 195.426  0.00  0.00    +0.000 A 
ATOM      3  C   UNL     1     126.036 110.664 195.613  0.00  0.00    +0.000 C 
ATOM      4  C   UNL     1     126.943 110.203 194.929  0.00  0.00    +0.000 A 
ATOM      5  N   UNL     1     126.126 111.296 195.312  0.00  0.00    +0.000 NA
ATOM      6  C   UNL     1     126.348 109.493 195.726  0.00  0.00    +0.000 A 
ATOM      7  N   UNL     1     127.042 110.836 194.619  0.00  0.00    +0.000 NA
ATOM      8  C   UNL     1     127.252 109.044 195.041  0.00  0.00    +0.000 A 
ATOM      9  C   UNL     1     127.354 109.665 194.732  0.00  0.00    +0.000 A 
ATOM     10  C   UNL     1     126.629 111.382 194.816  0.00  0.00    +0.000 C 
ATOM     11  O   UNL     1     125.532 110.578 196.111  0.00  0.00    +0.000 OA
ATOM     12 CL   UNL     1     127.665 108.499 194.845  0.00  0.00    +0.000 Cl
ENDROOT
BRANCH   1  13
ATOM     13  S   UNL     1     126.660 108.323 195.839  0.00  0.00    +0.000 S 
ATOM     14  O   UNL     1     126.174 108.156 195.352  0.00  0.00    +0.000 OA
ATOM     15  O   UNL     1     126.336 107.688 195.853  0.00  0.00    +0.000 OA
ATOM     16  N   UNL     1     127.035 108.146 196.415  0.00  0.00    +0.000 NA
ENDBRANCH   1  13
BRANCH  10  17
ATOM     17  C   UNL     1     126.729 112.015 194.506  0.00  0.00    +0.000 C 
ATOM     18  C   UNL     1     126.229 112.280 194.072  0.00  0.00    +0.000 C 
ENDBRANCH  10  17
TORSDOF 2
ENDMDL
MODEL 3
REMARK VINA RESULT:      -7.6      9.777     10.636
REMARK  Name = 
REMARK  2 active torsions:
REMARK  status: ('A' for Active; 'I' for Inactive)
REMARK    1  A    between atoms: S_1  and  C_2
REMARK    2  A    between atoms: C_11  and  C_17
REMARK                            x       y       z     vdW  Elec       q    Type
REMARK                         _______ _______ _______ _____ _____    ______ ____
ROOT
ATOM      1  C   UNL     1     119.965 134.827 119.068  0.00  0.00    +0.000 A 
ATOM      2  C   UNL     1     120.983 134.210 118.884  0.00  0.00    +0.000 A 
ATOM      3  C   UNL     1     121.682 134.195 118.792  0.00  0.00    +0.000 C 
ATOM      4  C   UNL     1     120.614 133.601 118.881  0.00  0.00    +0.000 A 
ATOM      5  N   UNL     1     122.019 133.582 118.697  0.00  0.00    +0.000 NA
ATOM      6  C   UNL     1     120.654 134.819 118.978  0.00  0.00    +0.000 A 
ATOM      7  N   UNL     1     120.943 132.977 118.786  0.00  0.00    +0.000 NA
ATOM      8  C   UNL     1     119.596 134.218 119.065  0.00  0.00    +0.000 A 
ATOM      9  C   UNL     1     119.914 133.601 118.972  0.00  0.00    +0.000 A 
ATOM     10  C   UNL     1     121.649 132.974 118.694  0.00  0.00    +0.000 C 
ATOM     11  O   UNL     1     122.052 134.805 118.795  0.00  0.00    +0.000 OA
ATOM     12 CL   UNL     1     118.890 134.221 119.157  0.00  0.00    +0.000 Cl
ENDROOT
BRANCH   1  13
ATOM     13  S   UNL     1     119.626 135.442 119.164  0.00  0.00    +0.000 S 
ATOM     14  O   UNL     1     119.747 135.405 119.860  0.00  0.00    +0.000 OA
ATOM     15  O   UNL     1     119.394 135.956 119.600  0.00  0.00    +0.000 OA
ATOM     16  N   UNL     1     119.349 135.786 118.608  0.00  0.00    +0.000 NA
ENDBRANCH   1  13
BRANCH  10  17
ATOM     17  C   UNL     1     121.978 132.350 118.599  0.00  0.00    +0.000 C 
ATOM     18  C   UNL     1     122.491 132.289 118.107  0.00  0.00    +0.000 C 
ENDBRANCH  10  17
TORSDOF 2
ENDMDL
MODEL 4
REMARK VINA RESULT:      -7.5     88.982     89.670
REMARK  Name = 
REMARK  2 active torsions:
REMARK  status: ('A' for Active; 'I' for Inactive)
REMARK    1  A    between atoms: S_1  and  C_2
REMARK    2  A    between atoms: C_11  and  C_17
REMARK                            x       y       z     vdW  Elec       q    Type
REMARK                         _______ _______ _______ _____ _____    ______ ____
ROOT
ATOM      1  C   UNL     1     120.129 151.834 199.155  0.00  0.00    +0.000 A 
ATOM      2  C   UNL     1     119.351 151.670 200.060  0.00  0.00    +0.000 A 
ATOM      3  C   UNL     1     118.775 151.360 200.324  0.00  0.00    +0.000 C 
ATOM      4  C   UNL     1     119.717 152.133 200.459  0.00  0.00    +0.000 A 
ATOM      5  N   UNL     1     118.560 151.504 200.981  0.00  0.00    +0.000 NA
ATOM      6  C   UNL     1     119.561 151.525 199.410  0.00  0.00    +0.000 A 
ATOM      7  N   UNL     1     119.509 152.285 201.122  0.00  0.00    +0.000 NA
ATOM      8  C   UNL     1     120.495 152.296 199.554  0.00  0.00    +0.000 A 
ATOM      9  C   UNL     1     120.295 152.451 200.208  0.00  0.00    +0.000 A 
ATOM     10  C   UNL     1     118.926 151.966 201.379  0.00  0.00    +0.000 C 
ATOM     11  O   UNL     1     118.408 150.897 199.925  0.00  0.00    +0.000 OA
ATOM     12 CL   UNL     1     121.077 152.615 199.297  0.00  0.00    +0.000 Cl
ENDROOT
BRANCH   1  13
ATOM     13  S   UNL     1     120.347 151.690 198.496  0.00  0.00    +0.000 S 
ATOM     14  O   UNL     1     120.724 151.142 198.736  0.00  0.00    +0.000 OA
ATOM     15  O   UNL     1     120.727 151.287 198.047  0.00  0.00    +0.000 OA
ATOM     16  N   UNL     1     120.129 152.093 197.954  0.00  0.00    +0.000 NA
ENDBRANCH   1  13
BRANCH  10  17
ATOM     17  C   UNL     1     118.718 152.119 202.042  0.00  0.00    +0.000 C 
ATOM     18  C   UNL     1     118.130 152.509 202.150  0.00  0.00    +0.000 C 
ENDBRANCH  10  17
TORSDOF 2
ENDMDL
