
     RDKit          2D

 26 27  0  0  0  0  0  0  0  0999 V2000
   -1.0375   -1.5375    0.0000 C   0  0  0  0  0  0  0  0  0  0  0  0
    2.5542    0.0333    0.0000 C   0  0  0  0  0  0  0  0  0  0  0  0
    0.0000   -1.5375    0.0000 C   0  0  0  0  0  0  0  0  0  0  0  0
    2.9917    0.8333    0.0000 C   0  0  0  0  0  0  0  0  0  0  0  0
   -1.0375   -0.6000    0.0000 O   0  0  0  0  0  0  0  0  0  0  0  0
    1.6042    0.0458    0.0000 O   0  0  0  0  0  0  0  0  0  0  0  0
    0.4667   -0.6750    0.0000 O   0  0  0  0  0  0  0  0  0  0  0  0
    2.9542    2.4208    0.0000 N   0  0  0  0  0  0  0  0  0  0  0  0
   -1.8083   -0.2000    0.0000 C   0  0  0  0  0  0  0  0  0  0  0  0
    3.0417   -0.7167    0.0000 O   0  0  0  0  0  0  0  0  0  0  0  0
    0.3375   -2.3292    0.0000 O   0  0  0  0  0  0  0  0  0  0  0  0
    2.5042    1.6083    0.0000 C   0  0  0  0  0  0  0  0  0  0  0  0
   -3.3833    0.7583    0.0000 C   0  0  0  0  0  0  0  0  0  0  0  0
   -4.1708    1.2083    0.0000 Cl  0  0  0  0  0  0  0  0  0  0  0  0
   -1.8208    0.7333    0.0000 C   0  0  0  0  0  0  0  0  0  0  0  0
   -2.6208   -0.6125    0.0000 C   0  0  0  0  0  0  0  0  0  0  0  0
   -3.3833   -0.1542    0.0000 C   0  0  0  0  0  0  0  0  0  0  0  0
   -2.5833    1.2083    0.0000 C   0  0  0  0  0  0  0  0  0  0  0  0
    1.6792   -1.5375    0.0000 C   0  0  0  0  0  0  0  0  0  0  0  0
    3.9042    0.8333    0.0000 C   0  0  0  0  0  0  0  0  0  0  0  0
   -1.0375   -2.4542    0.0000 C   0  0  0  0  0  0  0  0  0  0  0  0
   -1.9833   -1.5375    0.0000 C   0  0  0  0  0  0  0  0  0  0  0  0
    3.8667    2.4333    0.0000 C   0  0  0  0  0  0  0  0  0  0  0  0
    1.2417   -2.3292    0.0000 C   0  0  0  0  0  0  0  0  0  0  0  0
    2.5542   -1.5375    0.0000 C   0  0  0  0  0  0  0  0  0  0  0  0
    4.3417    1.6583    0.0000 C   0  0  0  0  0  0  0  0  0  0  0  0
  2 10  1  0
  3  1  1  0
  4  2  1  0
  5  1  1  0
  6  2  2  0
  7  3  2  0
  8 12  2  0
  9  5  1  0
 10 25  1  0
 11  3  1  0
 12  4  1  0
 13 17  1  0
 14 13  1  0
 15  9  2  0
 16  9  1  0
 17 16  2  0
 18 15  1  0
 19 24  1  0
 20  4  2  0
 21  1  1  0
 22  1  1  0
 23 26  2  0
 24 11  1  0
 25 19  1  0
 26 20  1  0
 18 13  2  0
  8 23  1  0
M  END


> <chembl_id>
CHEMBL153983

> <chembl_pref_name>
RONIFIBRATE
