MODEL 1
REMARK VINA RESULT:      -7.0      0.000      0.000
REMARK  Name = 
REMARK  19 active torsions:
REMARK  status: ('A' for Active; 'I' for Inactive)
REMARK    1  A    between atoms: C_1  and  C_3
REMARK    2  A    between atoms: C_1  and  C_10
REMARK    3  A    between atoms: C_2  and  C_4
REMARK    4  A    between atoms: C_4  and  C_5
REMARK    5  A    between atoms: C_4  and  C_21
REMARK    6  A    between atoms: C_5  and  C_11
REMARK    7  A    between atoms: N_6  and  C_10
REMARK    8  A    between atoms: C_7  and  C_8
REMARK    9  A    between atoms: C_7  and  C_13
REMARK   10  A    between atoms: C_7  and  C_22
REMARK   11  A    between atoms: C_8  and  C_12
REMARK   12  A    between atoms: C_9  and  O_25
REMARK   13  A    between atoms: C_11  and  C_12
REMARK   14  A    between atoms: C_13  and  C_16
REMARK   15  A    between atoms: C_14  and  O_27
REMARK   16  A    between atoms: O_25  and  C_32
REMARK   17  A    between atoms: C_30  and  C_32
REMARK   18  A    between atoms: C_30  and  C_33
REMARK   19  A    between atoms: O_31  and  C_33
REMARK                            x       y       z     vdW  Elec       q    Type
REMARK                         _______ _______ _______ _____ _____    ______ ____
ROOT
ATOM      1  C   UNL     1     148.568 103.680 193.137  0.00  0.00    +0.000 C 
ENDROOT
BRANCH   1   2
ATOM      2  C   UNL     1     148.224 103.263 193.611  0.00  0.00    +0.000 C 
ATOM      3  N   UNL     1     147.611 102.942 193.421  0.00  0.00    +0.000 NA
BRANCH   2   4
ATOM      4  C   UNL     1     148.499 103.175 194.265  0.00  0.00    +0.000 C 
ATOM      5  O   UNL     1     149.163 102.907 194.349  0.00  0.00    +0.000 OA
BRANCH   4   6
ATOM      6  C   UNL     1     148.107 103.356 194.844  0.00  0.00    +0.000 C 
BRANCH   6   7
ATOM      7  C   UNL     1     148.405 103.334 195.498  0.00  0.00    +0.000 C 
BRANCH   7   8
ATOM      8  C   UNL     1     148.643 103.939 195.794  0.00  0.00    +0.000 C 
ATOM      9  N   UNL     1     148.174 104.466 195.951  0.00  0.00    +0.000 NA
ATOM     10  O   UNL     1     149.340 104.024 195.936  0.00  0.00    +0.000 OA
BRANCH   9  11
ATOM     11  C   UNL     1     148.411 105.076 196.250  0.00  0.00    +0.000 C 
BRANCH  11  12
ATOM     12  C   UNL     1     147.950 105.607 196.375  0.00  0.00    +0.000 C 
ATOM     13  C   UNL     1     147.831 105.146 196.755  0.00  0.00    +0.000 C 
ATOM     14  C   UNL     1     147.490 106.038 196.557  0.00  0.00    +0.000 C 
BRANCH  12  15
ATOM     15  C   UNL     1     147.990 106.214 195.985  0.00  0.00    +0.000 C 
ATOM     16  O   UNL     1     147.411 106.457 195.638  0.00  0.00    +0.000 OA
ATOM     17  N   UNL     1     148.614 106.574 195.945  0.00  0.00    +0.000 NA
ENDBRANCH  12  15
ENDBRANCH  11  12
ENDBRANCH   9  11
ENDBRANCH   7   8
BRANCH   7  18
ATOM     18  C   UNL     1     148.459 102.703 195.842  0.00  0.00    +0.000 C 
ATOM     19  C   UNL     1     147.929 102.308 196.009  0.00  0.00    +0.000 C 
ATOM     20  C   UNL     1     149.011 102.453 196.025  0.00  0.00    +0.000 C 
ENDBRANCH   7  18
ENDBRANCH   6   7
ENDBRANCH   4   6
ENDBRANCH   2   4
ENDBRANCH   1   2
BRANCH   1  21
ATOM     21  C   UNL     1     148.267 103.815 192.495  0.00  0.00    +0.000 C 
BRANCH  21  22
ATOM     22  C   UNL     1     148.354 103.354 191.953  0.00  0.00    +0.000 C 
ATOM     23  C   UNL     1     147.816 102.987 191.417  0.00  0.00    +0.000 C 
ATOM     24  C   UNL     1     148.918 103.021 191.649  0.00  0.00    +0.000 C 
ENDBRANCH  21  22
BRANCH  21  25
ATOM     25  C   UNL     1     147.882 104.411 192.404  0.00  0.00    +0.000 C 
BRANCH  25  29
ATOM     26  C   UNL     1     148.181 106.286 192.266  0.00  0.00    +0.000 A 
ATOM     27  C   UNL     1     148.897 106.302 192.111  0.00  0.00    +0.000 A 
ATOM     28  C   UNL     1     147.851 105.655 192.362  0.00  0.00    +0.000 A 
ATOM     29  C   UNL     1     148.220 105.042 192.306  0.00  0.00    +0.000 A 
ATOM     30  C   UNL     1     149.259 105.685 192.056  0.00  0.00    +0.000 A 
ATOM     31  C   UNL     1     148.928 105.054 192.152  0.00  0.00    +0.000 A 
BRANCH  27  32
ATOM     32  O   UNL     1     149.228 106.934 192.015  0.00  0.00    +0.000 OA
ATOM     33  C   UNL     1     149.937 106.955 191.890  0.00  0.00    +0.000 C 
ENDBRANCH  27  32
BRANCH  26  34
ATOM     34  O   UNL     1     147.820 106.904 192.321  0.00  0.00    +0.000 OA
BRANCH  34  35
ATOM     35  C   UNL     1     147.115 106.930 192.166  0.00  0.00    +0.000 C 
BRANCH  35  36
ATOM     36  C   UNL     1     146.764 107.559 192.184  0.00  0.00    +0.000 C 
BRANCH  36  37
ATOM     37  C   UNL     1     146.090 107.607 191.934  0.00  0.00    +0.000 C 
BRANCH  37  38
ATOM     38  O   UNL     1     145.810 108.248 191.762  0.00  0.00    +0.000 OA
ATOM     39  C   UNL     1     145.129 108.291 191.557  0.00  0.00    +0.000 C 
ENDBRANCH  37  38
ENDBRANCH  36  37
ENDBRANCH  35  36
ENDBRANCH  34  35
ENDBRANCH  26  34
ENDBRANCH  25  29
ENDBRANCH  21  25
ENDBRANCH   1  21
TORSDOF 19
ENDMDL
MODEL 2
REMARK VINA RESULT:      -7.0     45.213     48.433
REMARK  Name = 
REMARK  19 active torsions:
REMARK  status: ('A' for Active; 'I' for Inactive)
REMARK    1  A    between atoms: C_1  and  C_3
REMARK    2  A    between atoms: C_1  and  C_10
REMARK    3  A    between atoms: C_2  and  C_4
REMARK    4  A    between atoms: C_4  and  C_5
REMARK    5  A    between atoms: C_4  and  C_21
REMARK    6  A    between atoms: C_5  and  C_11
REMARK    7  A    between atoms: N_6  and  C_10
REMARK    8  A    between atoms: C_7  and  C_8
REMARK    9  A    between atoms: C_7  and  C_13
REMARK   10  A    between atoms: C_7  and  C_22
REMARK   11  A    between atoms: C_8  and  C_12
REMARK   12  A    between atoms: C_9  and  O_25
REMARK   13  A    between atoms: C_11  and  C_12
REMARK   14  A    between atoms: C_13  and  C_16
REMARK   15  A    between atoms: C_14  and  O_27
REMARK   16  A    between atoms: O_25  and  C_32
REMARK   17  A    between atoms: C_30  and  C_32
REMARK   18  A    between atoms: C_30  and  C_33
REMARK   19  A    between atoms: O_31  and  C_33
REMARK                            x       y       z     vdW  Elec       q    Type
REMARK                         _______ _______ _______ _____ _____    ______ ____
ROOT
ATOM      1  C   UNL     1     134.339 151.165 186.639  0.00  0.00    +0.000 C 
ENDROOT
BRANCH   1   2
ATOM      2  C   UNL     1     133.730 150.783 186.637  0.00  0.00    +0.000 C 
ATOM      3  N   UNL     1     133.747 150.089 186.818  0.00  0.00    +0.000 NA
BRANCH   2   4
ATOM      4  C   UNL     1     133.116 151.102 186.455  0.00  0.00    +0.000 C 
ATOM      5  O   UNL     1     132.918 151.719 186.771  0.00  0.00    +0.000 OA
BRANCH   4   6
ATOM      6  C   UNL     1     132.695 150.801 185.952  0.00  0.00    +0.000 C 
BRANCH   6   7
ATOM      7  C   UNL     1     132.056 151.094 185.801  0.00  0.00    +0.000 C 
BRANCH   7   8
ATOM      8  C   UNL     1     131.463 150.791 186.058  0.00  0.00    +0.000 C 
ATOM      9  N   UNL     1     131.261 150.142 185.815  0.00  0.00    +0.000 NA
ATOM     10  O   UNL     1     131.069 151.127 186.554  0.00  0.00    +0.000 OA
BRANCH   9  11
ATOM     11  C   UNL     1     130.664 149.835 186.072  0.00  0.00    +0.000 C 
BRANCH  11  12
ATOM     12  C   UNL     1     130.480 149.181 185.846  0.00  0.00    +0.000 C 
ATOM     13  C   UNL     1     130.407 149.578 185.390  0.00  0.00    +0.000 C 
ATOM     14  C   UNL     1     130.293 148.624 185.557  0.00  0.00    +0.000 C 
BRANCH  12  15
ATOM     15  C   UNL     1     130.525 148.622 186.301  0.00  0.00    +0.000 C 
ATOM     16  O   UNL     1     130.223 148.661 186.950  0.00  0.00    +0.000 OA
ATOM     17  N   UNL     1     130.874 148.023 186.100  0.00  0.00    +0.000 NA
ENDBRANCH  12  15
ENDBRANCH  11  12
ENDBRANCH   9  11
ENDBRANCH   7   8
BRANCH   7  18
ATOM     18  C   UNL     1     132.025 151.688 185.393  0.00  0.00    +0.000 C 
ATOM     19  C   UNL     1     131.775 152.287 185.602  0.00  0.00    +0.000 C 
ATOM     20  C   UNL     1     132.230 151.710 184.794  0.00  0.00    +0.000 C 
ENDBRANCH   7  18
ENDBRANCH   6   7
ENDBRANCH   4   6
ENDBRANCH   2   4
ENDBRANCH   1   2
BRANCH   1  21
ATOM     21  C   UNL     1     134.956 150.855 186.851  0.00  0.00    +0.000 C 
BRANCH  21  22
ATOM     22  C   UNL     1     135.150 150.874 187.541  0.00  0.00    +0.000 C 
ATOM     23  C   UNL     1     135.424 150.285 188.078  0.00  0.00    +0.000 C 
ATOM     24  C   UNL     1     135.190 151.387 188.047  0.00  0.00    +0.000 C 
ENDBRANCH  21  22
BRANCH  21  25
ATOM     25  C   UNL     1     135.370 150.528 186.368  0.00  0.00    +0.000 C 
BRANCH  25  29
ATOM     26  C   UNL     1     136.883 150.936 185.288  0.00  0.00    +0.000 A 
ATOM     27  C   UNL     1     136.881 151.668 185.314  0.00  0.00    +0.000 A 
ATOM     28  C   UNL     1     136.380 150.564 185.640  0.00  0.00    +0.000 A 
ATOM     29  C   UNL     1     135.874 150.908 186.016  0.00  0.00    +0.000 A 
ATOM     30  C   UNL     1     136.372 152.004 185.692  0.00  0.00    +0.000 A 
ATOM     31  C   UNL     1     135.868 151.632 186.044  0.00  0.00    +0.000 A 
BRANCH  27  32
ATOM     32  O   UNL     1     137.385 152.040 184.961  0.00  0.00    +0.000 OA
ATOM     33  C   UNL     1     137.413 152.758 185.019  0.00  0.00    +0.000 C 
ENDBRANCH  27  32
BRANCH  26  34
ATOM     34  O   UNL     1     137.393 150.600 184.909  0.00  0.00    +0.000 OA
BRANCH  34  35
ATOM     35  C   UNL     1     137.455 149.881 184.937  0.00  0.00    +0.000 C 
BRANCH  35  36
ATOM     36  C   UNL     1     137.961 149.547 184.548  0.00  0.00    +0.000 C 
BRANCH  36  37
ATOM     37  C   UNL     1     138.074 148.840 184.628  0.00  0.00    +0.000 C 
BRANCH  37  38
ATOM     38  O   UNL     1     138.480 148.480 184.155  0.00  0.00    +0.000 OA
ATOM     39  C   UNL     1     138.722 147.831 184.321  0.00  0.00    +0.000 C 
ENDBRANCH  37  38
ENDBRANCH  36  37
ENDBRANCH  35  36
ENDBRANCH  34  35
ENDBRANCH  26  34
ENDBRANCH  25  29
ENDBRANCH  21  25
ENDBRANCH   1  21
TORSDOF 19
ENDMDL
MODEL 3
REMARK VINA RESULT:      -6.9      2.291      4.604
REMARK  Name = 
REMARK  19 active torsions:
REMARK  status: ('A' for Active; 'I' for Inactive)
REMARK    1  A    between atoms: C_1  and  C_3
REMARK    2  A    between atoms: C_1  and  C_10
REMARK    3  A    between atoms: C_2  and  C_4
REMARK    4  A    between atoms: C_4  and  C_5
REMARK    5  A    between atoms: C_4  and  C_21
REMARK    6  A    between atoms: C_5  and  C_11
REMARK    7  A    between atoms: N_6  and  C_10
REMARK    8  A    between atoms: C_7  and  C_8
REMARK    9  A    between atoms: C_7  and  C_13
REMARK   10  A    between atoms: C_7  and  C_22
REMARK   11  A    between atoms: C_8  and  C_12
REMARK   12  A    between atoms: C_9  and  O_25
REMARK   13  A    between atoms: C_11  and  C_12
REMARK   14  A    between atoms: C_13  and  C_16
REMARK   15  A    between atoms: C_14  and  O_27
REMARK   16  A    between atoms: O_25  and  C_32
REMARK   17  A    between atoms: C_30  and  C_32
REMARK   18  A    between atoms: C_30  and  C_33
REMARK   19  A    between atoms: O_31  and  C_33
REMARK                            x       y       z     vdW  Elec       q    Type
REMARK                         _______ _______ _______ _____ _____    ______ ____
ROOT
ATOM      1  C   UNL     1     148.683 103.859 192.043  0.00  0.00    +0.000 C 
ENDROOT
BRANCH   1   2
ATOM      2  C   UNL     1     148.437 104.533 192.084  0.00  0.00    +0.000 C 
ATOM      3  N   UNL     1     147.750 104.649 192.251  0.00  0.00    +0.000 NA
BRANCH   2   4
ATOM      4  C   UNL     1     148.883 105.077 191.957  0.00  0.00    +0.000 C 
ATOM      5  O   UNL     1     149.456 104.987 191.529  0.00  0.00    +0.000 OA
BRANCH   4   6
ATOM      6  C   UNL     1     148.756 105.720 192.261  0.00  0.00    +0.000 C 
BRANCH   6   7
ATOM      7  C   UNL     1     149.247 106.242 192.209  0.00  0.00    +0.000 C 
BRANCH   7   8
ATOM      8  C   UNL     1     149.666 106.385 192.770  0.00  0.00    +0.000 C 
ATOM      9  N   UNL     1     149.369 106.615 193.386  0.00  0.00    +0.000 NA
ATOM     10  O   UNL     1     150.377 106.300 192.724  0.00  0.00    +0.000 OA
BRANCH   9  11
ATOM     11  C   UNL     1     149.788 106.759 193.952  0.00  0.00    +0.000 C 
BRANCH  11  12
ATOM     12  C   UNL     1     149.487 106.946 194.574  0.00  0.00    +0.000 C 
ATOM     13  C   UNL     1     149.391 107.388 194.165  0.00  0.00    +0.000 C 
ATOM     14  C   UNL     1     149.184 107.196 195.099  0.00  0.00    +0.000 C 
BRANCH  12  15
ATOM     15  C   UNL     1     149.533 106.500 195.140  0.00  0.00    +0.000 C 
ATOM     16  O   UNL     1     148.949 106.161 195.379  0.00  0.00    +0.000 OA
ATOM     17  N   UNL     1     150.170 106.397 195.464  0.00  0.00    +0.000 NA
ENDBRANCH  12  15
ENDBRANCH  11  12
ENDBRANCH   9  11
ENDBRANCH   7   8
BRANCH   7  18
ATOM     18  C   UNL     1     149.310 106.612 191.593  0.00  0.00    +0.000 C 
ATOM     19  C   UNL     1     149.861 106.604 191.193  0.00  0.00    +0.000 C 
ATOM     20  C   UNL     1     148.852 106.984 191.364  0.00  0.00    +0.000 C 
ENDBRANCH   7  18
ENDBRANCH   6   7
ENDBRANCH   4   6
ENDBRANCH   2   4
ENDBRANCH   1   2
BRANCH   1  21
ATOM     21  C   UNL     1     148.270 103.313 192.273  0.00  0.00    +0.000 C 
BRANCH  21  22
ATOM     22  C   UNL     1     148.317 103.088 192.952  0.00  0.00    +0.000 C 
ATOM     23  C   UNL     1     148.961 102.817 193.425  0.00  0.00    +0.000 C 
ATOM     24  C   UNL     1     147.851 103.001 193.496  0.00  0.00    +0.000 C 
ENDBRANCH  21  22
BRANCH  21  25
ATOM     25  C   UNL     1     147.815 102.999 191.818  0.00  0.00    +0.000 C 
BRANCH  25  29
ATOM     26  C   UNL     1     147.748 101.356 190.861  0.00  0.00    +0.000 A 
ATOM     27  C   UNL     1     148.456 101.258 190.700  0.00  0.00    +0.000 A 
ATOM     28  C   UNL     1     147.542 101.935 191.232  0.00  0.00    +0.000 A 
ATOM     29  C   UNL     1     148.029 102.419 191.445  0.00  0.00    +0.000 A 
ATOM     30  C   UNL     1     148.935 101.746 190.917  0.00  0.00    +0.000 A 
ATOM     31  C   UNL     1     148.730 102.325 191.288  0.00  0.00    +0.000 A 
BRANCH  27  32
ATOM     32  O   UNL     1     148.661 100.677 190.328  0.00  0.00    +0.000 OA
ATOM     33  C   UNL     1     149.361 100.516 190.266  0.00  0.00    +0.000 C 
ENDBRANCH  27  32
BRANCH  26  34
ATOM     34  O   UNL     1     147.268 100.867 190.644  0.00  0.00    +0.000 OA
BRANCH  34  35
ATOM     35  C   UNL     1     146.672 100.742 191.033  0.00  0.00    +0.000 C 
BRANCH  35  36
ATOM     36  C   UNL     1     146.162 100.301 190.780  0.00  0.00    +0.000 C 
BRANCH  36  37
ATOM     37  C   UNL     1     145.670 100.020 191.225  0.00  0.00    +0.000 C 
BRANCH  37  38
ATOM     38  O   UNL     1     145.095  99.675 190.962  0.00  0.00    +0.000 OA
ATOM     39  C   UNL     1     144.639  99.360 191.409  0.00  0.00    +0.000 C 
ENDBRANCH  37  38
ENDBRANCH  36  37
ENDBRANCH  35  36
ENDBRANCH  34  35
ENDBRANCH  26  34
ENDBRANCH  25  29
ENDBRANCH  21  25
ENDBRANCH   1  21
TORSDOF 19
ENDMDL
MODEL 4
REMARK VINA RESULT:      -6.6      2.727      5.303
REMARK  Name = 
REMARK  19 active torsions:
REMARK  status: ('A' for Active; 'I' for Inactive)
REMARK    1  A    between atoms: C_1  and  C_3
REMARK    2  A    between atoms: C_1  and  C_10
REMARK    3  A    between atoms: C_2  and  C_4
REMARK    4  A    between atoms: C_4  and  C_5
REMARK    5  A    between atoms: C_4  and  C_21
REMARK    6  A    between atoms: C_5  and  C_11
REMARK    7  A    between atoms: N_6  and  C_10
REMARK    8  A    between atoms: C_7  and  C_8
REMARK    9  A    between atoms: C_7  and  C_13
REMARK   10  A    between atoms: C_7  and  C_22
REMARK   11  A    between atoms: C_8  and  C_12
REMARK   12  A    between atoms: C_9  and  O_25
REMARK   13  A    between atoms: C_11  and  C_12
REMARK   14  A    between atoms: C_13  and  C_16
REMARK   15  A    between atoms: C_14  and  O_27
REMARK   16  A    between atoms: O_25  and  C_32
REMARK   17  A    between atoms: C_30  and  C_32
REMARK   18  A    between atoms: C_30  and  C_33
REMARK   19  A    between atoms: O_31  and  C_33
REMARK                            x       y       z     vdW  Elec       q    Type
REMARK                         _______ _______ _______ _____ _____    ______ ____
ROOT
ATOM      1  C   UNL     1     148.260 102.835 192.315  0.00  0.00    +0.000 C 
ENDROOT
BRANCH   1   2
ATOM      2  C   UNL     1     148.027 103.478 192.093  0.00  0.00    +0.000 C 
ATOM      3  N   UNL     1     147.647 103.528 191.487  0.00  0.00    +0.000 NA
BRANCH   2   4
ATOM      4  C   UNL     1     148.179 104.060 192.481  0.00  0.00    +0.000 C 
ATOM      5  O   UNL     1     148.216 104.019 193.200  0.00  0.00    +0.000 OA
BRANCH   4   6
ATOM      6  C   UNL     1     148.297 104.689 192.148  0.00  0.00    +0.000 C 
BRANCH   6   7
ATOM      7  C   UNL     1     148.461 105.272 192.535  0.00  0.00    +0.000 C 
BRANCH   7   8
ATOM      8  C   UNL     1     149.128 105.526 192.521  0.00  0.00    +0.000 C 
ATOM      9  N   UNL     1     149.354 105.901 191.947  0.00  0.00    +0.000 NA
ATOM     10  O   UNL     1     149.573 105.410 193.072  0.00  0.00    +0.000 OA
BRANCH   9  11
ATOM     11  C   UNL     1     150.025 106.157 191.930  0.00  0.00    +0.000 C 
BRANCH  11  12
ATOM     12  C   UNL     1     150.239 106.546 191.369  0.00  0.00    +0.000 C 
ATOM     13  C   UNL     1     150.132 105.974 191.186  0.00  0.00    +0.000 C 
ATOM     14  C   UNL     1     150.425 106.822 190.804  0.00  0.00    +0.000 C 
BRANCH  12  15
ATOM     15  C   UNL     1     150.397 107.244 191.459  0.00  0.00    +0.000 C 
ATOM     16  O   UNL     1     150.930 107.439 191.897  0.00  0.00    +0.000 OA
ATOM     17  N   UNL     1     150.018 107.747 191.106  0.00  0.00    +0.000 NA
ENDBRANCH  12  15
ENDBRANCH  11  12
ENDBRANCH   9  11
ENDBRANCH   7   8
BRANCH   7  18
ATOM     18  C   UNL     1     147.949 105.591 192.931  0.00  0.00    +0.000 C 
ATOM     19  C   UNL     1     147.383 105.872 192.676  0.00  0.00    +0.000 C 
ATOM     20  C   UNL     1     147.978 105.640 193.562  0.00  0.00    +0.000 C 
ENDBRANCH   7  18
ENDBRANCH   6   7
ENDBRANCH   4   6
ENDBRANCH   2   4
ENDBRANCH   1   2
BRANCH   1  21
ATOM     21  C   UNL     1     148.106 102.246 191.927  0.00  0.00    +0.000 C 
BRANCH  21  22
ATOM     22  C   UNL     1     148.556 102.027 191.413  0.00  0.00    +0.000 C 
ATOM     23  C   UNL     1     149.378 101.839 191.410  0.00  0.00    +0.000 C 
ATOM     24  C   UNL     1     148.496 101.881 190.709  0.00  0.00    +0.000 C 
ENDBRANCH  21  22
BRANCH  21  25
ATOM     25  C   UNL     1     147.504 101.884 192.060  0.00  0.00    +0.000 C 
BRANCH  25  29
ATOM     26  C   UNL     1     147.118 100.196 192.850  0.00  0.00    +0.000 A 
ATOM     27  C   UNL     1     147.544 100.220 193.446  0.00  0.00    +0.000 A 
ATOM     28  C   UNL     1     147.109 100.751 192.395  0.00  0.00    +0.000 A 
ATOM     29  C   UNL     1     147.517 101.329 192.522  0.00  0.00    +0.000 A 
ATOM     30  C   UNL     1     147.948 100.800 193.566  0.00  0.00    +0.000 A 
ATOM     31  C   UNL     1     147.940 101.355 193.110  0.00  0.00    +0.000 A 
BRANCH  27  32
ATOM     32  O   UNL     1     147.552  99.663 193.902  0.00  0.00    +0.000 OA
ATOM     33  C   UNL     1     147.997  99.667 194.469  0.00  0.00    +0.000 C 
ENDBRANCH  27  32
BRANCH  26  34
ATOM     34  O   UNL     1     146.713  99.614 192.731  0.00  0.00    +0.000 OA
BRANCH  34  35
ATOM     35  C   UNL     1     146.101  99.666 192.351  0.00  0.00    +0.000 C 
BRANCH  35  36
ATOM     36  C   UNL     1     145.700  99.081 192.230  0.00  0.00    +0.000 C 
BRANCH  36  37
ATOM     37  C   UNL     1     145.050  99.141 191.925  0.00  0.00    +0.000 C 
BRANCH  37  38
ATOM     38  O   UNL     1     144.543  98.645 192.048  0.00  0.00    +0.000 OA
ATOM     39  C   UNL     1     143.919  98.688 191.707  0.00  0.00    +0.000 C 
ENDBRANCH  37  38
ENDBRANCH  36  37
ENDBRANCH  35  36
ENDBRANCH  34  35
ENDBRANCH  26  34
ENDBRANCH  25  29
ENDBRANCH  21  25
ENDBRANCH   1  21
TORSDOF 19
ENDMDL
MODEL 5
REMARK VINA RESULT:      -6.6      2.461      5.335
REMARK  Name = 
REMARK  19 active torsions:
REMARK  status: ('A' for Active; 'I' for Inactive)
REMARK    1  A    between atoms: C_1  and  C_3
REMARK    2  A    between atoms: C_1  and  C_10
REMARK    3  A    between atoms: C_2  and  C_4
REMARK    4  A    between atoms: C_4  and  C_5
REMARK    5  A    between atoms: C_4  and  C_21
REMARK    6  A    between atoms: C_5  and  C_11
REMARK    7  A    between atoms: N_6  and  C_10
REMARK    8  A    between atoms: C_7  and  C_8
REMARK    9  A    between atoms: C_7  and  C_13
REMARK   10  A    between atoms: C_7  and  C_22
REMARK   11  A    between atoms: C_8  and  C_12
REMARK   12  A    between atoms: C_9  and  O_25
REMARK   13  A    between atoms: C_11  and  C_12
REMARK   14  A    between atoms: C_13  and  C_16
REMARK   15  A    between atoms: C_14  and  O_27
REMARK   16  A    between atoms: O_25  and  C_32
REMARK   17  A    between atoms: C_30  and  C_32
REMARK   18  A    between atoms: C_30  and  C_33
REMARK   19  A    between atoms: O_31  and  C_33
REMARK                            x       y       z     vdW  Elec       q    Type
REMARK                         _______ _______ _______ _____ _____    ______ ____
ROOT
ATOM      1  C   UNL     1     148.199 103.382 192.734  0.00  0.00    +0.000 C 
ENDROOT
BRANCH   1   2
ATOM      2  C   UNL     1     148.602 103.947 192.922  0.00  0.00    +0.000 C 
ATOM      3  N   UNL     1     149.250 103.839 193.209  0.00  0.00    +0.000 NA
BRANCH   2   4
ATOM      4  C   UNL     1     148.349 104.608 192.820  0.00  0.00    +0.000 C 
ATOM      5  O   UNL     1     147.654 104.712 192.659  0.00  0.00    +0.000 OA
BRANCH   4   6
ATOM      6  C   UNL     1     148.795 105.173 192.879  0.00  0.00    +0.000 C 
BRANCH   6   7
ATOM      7  C   UNL     1     148.536 105.840 192.811  0.00  0.00    +0.000 C 
BRANCH   7   8
ATOM      8  C   UNL     1     148.676 106.211 192.216  0.00  0.00    +0.000 C 
ATOM      9  N   UNL     1     149.353 106.425 192.082  0.00  0.00    +0.000 NA
ATOM     10  O   UNL     1     148.150 106.371 191.756  0.00  0.00    +0.000 OA
BRANCH   9  11
ATOM     11  C   UNL     1     149.496 106.798 191.484  0.00  0.00    +0.000 C 
BRANCH  11  12
ATOM     12  C   UNL     1     150.173 106.977 191.337  0.00  0.00    +0.000 C 
ATOM     13  C   UNL     1     150.055 106.430 191.096  0.00  0.00    +0.000 C 
ATOM     14  C   UNL     1     150.797 107.059 191.157  0.00  0.00    +0.000 C 
BRANCH  12  15
ATOM     15  C   UNL     1     150.432 107.609 191.570  0.00  0.00    +0.000 C 
ATOM     16  O   UNL     1     150.992 107.624 192.019  0.00  0.00    +0.000 OA
ATOM     17  N   UNL     1     150.127 108.226 191.351  0.00  0.00    +0.000 NA
ENDBRANCH  12  15
ENDBRANCH  11  12
ENDBRANCH   9  11
ENDBRANCH   7   8
BRANCH   7  18
ATOM     18  C   UNL     1     148.140 106.123 193.343  0.00  0.00    +0.000 C 
ATOM     19  C   UNL     1     148.359 106.212 193.982  0.00  0.00    +0.000 C 
ATOM     20  C   UNL     1     147.543 106.319 193.265  0.00  0.00    +0.000 C 
ENDBRANCH   7  18
ENDBRANCH   6   7
ENDBRANCH   4   6
ENDBRANCH   2   4
ENDBRANCH   1   2
BRANCH   1  21
ATOM     21  C   UNL     1     148.463 102.714 192.808  0.00  0.00    +0.000 C 
BRANCH  21  22
ATOM     22  C   UNL     1     148.411 102.375 193.438  0.00  0.00    +0.000 C 
ATOM     23  C   UNL     1     148.972 101.970 193.920  0.00  0.00    +0.000 C 
ATOM     24  C   UNL     1     147.879 102.244 193.907  0.00  0.00    +0.000 C 
ENDBRANCH  21  22
BRANCH  21  25
ATOM     25  C   UNL     1     148.774 102.394 192.249  0.00  0.00    +0.000 C 
BRANCH  25  29
ATOM     26  C   UNL     1     148.317 101.130 190.902  0.00  0.00    +0.000 A 
ATOM     27  C   UNL     1     147.584 101.153 190.931  0.00  0.00    +0.000 A 
ATOM     28  C   UNL     1     148.705 101.544 191.342  0.00  0.00    +0.000 A 
ATOM     29  C   UNL     1     148.378 101.980 191.810  0.00  0.00    +0.000 A 
ATOM     30  C   UNL     1     147.266 101.592 191.401  0.00  0.00    +0.000 A 
ATOM     31  C   UNL     1     147.654 102.006 191.841  0.00  0.00    +0.000 A 
BRANCH  27  32
ATOM     32  O   UNL     1     147.196 100.738 190.491  0.00  0.00    +0.000 OA
ATOM     33  C   UNL     1     146.480 100.698 190.569  0.00  0.00    +0.000 C 
ENDBRANCH  27  32
BRANCH  26  34
ATOM     34  O   UNL     1     148.635 100.690 190.432  0.00  0.00    +0.000 OA
BRANCH  34  35
ATOM     35  C   UNL     1     149.259 100.367 190.599  0.00  0.00    +0.000 C 
BRANCH  35  36
ATOM     36  C   UNL     1     149.584  99.940 190.118  0.00  0.00    +0.000 C 
BRANCH  36  37
ATOM     37  C   UNL     1     150.132  99.517 190.319  0.00  0.00    +0.000 C 
BRANCH  37  38
ATOM     38  O   UNL     1     150.490  99.128 189.830  0.00  0.00    +0.000 OA
ATOM     39  C   UNL     1     150.994  98.672 190.044  0.00  0.00    +0.000 C 
ENDBRANCH  37  38
ENDBRANCH  36  37
ENDBRANCH  35  36
ENDBRANCH  34  35
ENDBRANCH  26  34
ENDBRANCH  25  29
ENDBRANCH  21  25
ENDBRANCH   1  21
TORSDOF 19
ENDMDL
MODEL 6
REMARK VINA RESULT:      -6.6     64.362     66.473
REMARK  Name = 
REMARK  19 active torsions:
REMARK  status: ('A' for Active; 'I' for Inactive)
REMARK    1  A    between atoms: C_1  and  C_3
REMARK    2  A    between atoms: C_1  and  C_10
REMARK    3  A    between atoms: C_2  and  C_4
REMARK    4  A    between atoms: C_4  and  C_5
REMARK    5  A    between atoms: C_4  and  C_21
REMARK    6  A    between atoms: C_5  and  C_11
REMARK    7  A    between atoms: N_6  and  C_10
REMARK    8  A    between atoms: C_7  and  C_8
REMARK    9  A    between atoms: C_7  and  C_13
REMARK   10  A    between atoms: C_7  and  C_22
REMARK   11  A    between atoms: C_8  and  C_12
REMARK   12  A    between atoms: C_9  and  O_25
REMARK   13  A    between atoms: C_11  and  C_12
REMARK   14  A    between atoms: C_13  and  C_16
REMARK   15  A    between atoms: C_14  and  O_27
REMARK   16  A    between atoms: O_25  and  C_32
REMARK   17  A    between atoms: C_30  and  C_32
REMARK   18  A    between atoms: C_30  and  C_33
REMARK   19  A    between atoms: O_31  and  C_33
REMARK                            x       y       z     vdW  Elec       q    Type
REMARK                         _______ _______ _______ _____ _____    ______ ____
ROOT
ATOM      1  C   UNL     1     149.588 130.546 133.754  0.00  0.00    +0.000 C 
ENDROOT
BRANCH   1   2
ATOM      2  C   UNL     1     150.154 130.879 133.462  0.00  0.00    +0.000 C 
ATOM      3  N   UNL     1     150.523 130.558 132.937  0.00  0.00    +0.000 NA
BRANCH   2   4
ATOM      4  C   UNL     1     150.340 131.528 133.699  0.00  0.00    +0.000 C 
ATOM      5  O   UNL     1     150.308 131.682 134.403  0.00  0.00    +0.000 OA
BRANCH   4   6
ATOM      6  C   UNL     1     150.561 132.030 133.229  0.00  0.00    +0.000 C 
BRANCH   6   7
ATOM      7  C   UNL     1     150.650 132.708 133.448  0.00  0.00    +0.000 C 
BRANCH   7   8
ATOM      8  C   UNL     1     150.142 133.191 133.310  0.00  0.00    +0.000 C 
ATOM      9  N   UNL     1     149.969 133.338 132.624  0.00  0.00    +0.000 NA
ATOM     10  O   UNL     1     149.804 133.526 133.846  0.00  0.00    +0.000 OA
BRANCH   9  11
ATOM     11  C   UNL     1     149.458 133.823 132.482  0.00  0.00    +0.000 C 
BRANCH  11  12
ATOM     12  C   UNL     1     149.260 133.937 131.804  0.00  0.00    +0.000 C 
ATOM     13  C   UNL     1     149.797 134.208 131.904  0.00  0.00    +0.000 C 
ATOM     14  C   UNL     1     149.160 134.089 131.175  0.00  0.00    +0.000 C 
BRANCH  12  15
ATOM     15  C   UNL     1     148.637 133.662 131.564  0.00  0.00    +0.000 C 
ATOM     16  O   UNL     1     148.630 133.236 130.988  0.00  0.00    +0.000 OA
ATOM     17  N   UNL     1     148.020 133.819 131.906  0.00  0.00    +0.000 NA
ENDBRANCH  12  15
ENDBRANCH  11  12
ENDBRANCH   9  11
ENDBRANCH   7   8
BRANCH   7  18
ATOM     18  C   UNL     1     151.251 132.891 133.803  0.00  0.00    +0.000 C 
ATOM     19  C   UNL     1     151.880 132.847 133.545  0.00  0.00    +0.000 C 
ATOM     20  C   UNL     1     151.250 133.112 134.397  0.00  0.00    +0.000 C 
ENDBRANCH   7  18
ENDBRANCH   6   7
ENDBRANCH   4   6
ENDBRANCH   2   4
ENDBRANCH   1   2
BRANCH   1  21
ATOM     21  C   UNL     1     149.372 129.910 133.489  0.00  0.00    +0.000 C 
BRANCH  21  22
ATOM     22  C   UNL     1     149.696 129.305 133.696  0.00  0.00    +0.000 C 
ATOM     23  C   UNL     1     149.911 128.997 134.451  0.00  0.00    +0.000 C 
ATOM     24  C   UNL     1     149.966 128.727 133.358  0.00  0.00    +0.000 C 
ENDBRANCH  21  22
BRANCH  21  25
ATOM     25  C   UNL     1     148.833 129.889 133.019  0.00  0.00    +0.000 C 
BRANCH  25  29
ATOM     26  C   UNL     1     146.979 130.308 133.119  0.00  0.00    +0.000 A 
ATOM     27  C   UNL     1     146.790 129.962 133.736  0.00  0.00    +0.000 A 
ATOM     28  C   UNL     1     147.658 130.279 132.886  0.00  0.00    +0.000 A 
ATOM     29  C   UNL     1     148.152 129.913 133.258  0.00  0.00    +0.000 A 
ATOM     30  C   UNL     1     147.289 129.598 134.102  0.00  0.00    +0.000 A 
ATOM     31  C   UNL     1     147.968 129.570 133.869  0.00  0.00    +0.000 A 
BRANCH  27  32
ATOM     32  O   UNL     1     146.110 129.990 133.969  0.00  0.00    +0.000 OA
ATOM     33  C   UNL     1     145.935 129.716 134.612  0.00  0.00    +0.000 C 
ENDBRANCH  27  32
BRANCH  26  34
ATOM     34  O   UNL     1     146.479 130.671 132.753  0.00  0.00    +0.000 OA
BRANCH  34  35
ATOM     35  C   UNL     1     146.460 130.643 132.032  0.00  0.00    +0.000 C 
BRANCH  35  36
ATOM     36  C   UNL     1     145.985 131.043 131.667  0.00  0.00    +0.000 C 
BRANCH  36  37
ATOM     37  C   UNL     1     145.862 130.915 130.969  0.00  0.00    +0.000 C 
BRANCH  37  38
ATOM     38  O   UNL     1     145.562 131.421 130.553  0.00  0.00    +0.000 OA
ATOM     39  C   UNL     1     144.953 131.280 130.212  0.00  0.00    +0.000 C 
ENDBRANCH  37  38
ENDBRANCH  36  37
ENDBRANCH  35  36
ENDBRANCH  34  35
ENDBRANCH  26  34
ENDBRANCH  25  29
ENDBRANCH  21  25
ENDBRANCH   1  21
TORSDOF 19
ENDMDL
MODEL 7
REMARK VINA RESULT:      -6.5     37.439     40.153
REMARK  Name = 
REMARK  19 active torsions:
REMARK  status: ('A' for Active; 'I' for Inactive)
REMARK    1  A    between atoms: C_1  and  C_3
REMARK    2  A    between atoms: C_1  and  C_10
REMARK    3  A    between atoms: C_2  and  C_4
REMARK    4  A    between atoms: C_4  and  C_5
REMARK    5  A    between atoms: C_4  and  C_21
REMARK    6  A    between atoms: C_5  and  C_11
REMARK    7  A    between atoms: N_6  and  C_10
REMARK    8  A    between atoms: C_7  and  C_8
REMARK    9  A    between atoms: C_7  and  C_13
REMARK   10  A    between atoms: C_7  and  C_22
REMARK   11  A    between atoms: C_8  and  C_12
REMARK   12  A    between atoms: C_9  and  O_25
REMARK   13  A    between atoms: C_11  and  C_12
REMARK   14  A    between atoms: C_13  and  C_16
REMARK   15  A    between atoms: C_14  and  O_27
REMARK   16  A    between atoms: O_25  and  C_32
REMARK   17  A    between atoms: C_30  and  C_32
REMARK   18  A    between atoms: C_30  and  C_33
REMARK   19  A    between atoms: O_31  and  C_33
REMARK                            x       y       z     vdW  Elec       q    Type
REMARK                         _______ _______ _______ _____ _____    ______ ____
ROOT
ATOM      1  C   UNL     1     111.706 115.795 186.060  0.00  0.00    +0.000 C 
ENDROOT
BRANCH   1   2
ATOM      2  C   UNL     1     111.951 116.416 185.795  0.00  0.00    +0.000 C 
ATOM      3  N   UNL     1     112.622 116.453 185.543  0.00  0.00    +0.000 NA
BRANCH   2   4
ATOM      4  C   UNL     1     111.522 116.988 185.786  0.00  0.00    +0.000 C 
ATOM      5  O   UNL     1     111.162 117.183 186.379  0.00  0.00    +0.000 OA
BRANCH   4   6
ATOM      6  C   UNL     1     111.450 117.370 185.177  0.00  0.00    +0.000 C 
BRANCH   6   7
ATOM      7  C   UNL     1     110.977 117.910 185.149  0.00  0.00    +0.000 C 
BRANCH   7   8
ATOM      8  C   UNL     1     110.354 117.812 184.814  0.00  0.00    +0.000 C 
ATOM      9  N   UNL     1     110.334 117.815 184.092  0.00  0.00    +0.000 NA
ATOM     10  O   UNL     1     109.751 117.711 185.189  0.00  0.00    +0.000 OA
BRANCH   9  11
ATOM     11  C   UNL     1     109.708 117.716 183.752  0.00  0.00    +0.000 C 
BRANCH  11  12
ATOM     12  C   UNL     1     109.686 117.754 183.038  0.00  0.00    +0.000 C 
ATOM     13  C   UNL     1     110.080 117.319 183.203  0.00  0.00    +0.000 C 
ATOM     14  C   UNL     1     109.730 117.719 182.386  0.00  0.00    +0.000 C 
BRANCH  12  15
ATOM     15  C   UNL     1     109.252 118.235 182.721  0.00  0.00    +0.000 C 
ATOM     16  O   UNL     1     108.551 118.241 182.871  0.00  0.00    +0.000 OA
ATOM     17  N   UNL     1     109.525 118.711 182.251  0.00  0.00    +0.000 NA
ENDBRANCH  12  15
ENDBRANCH  11  12
ENDBRANCH   9  11
ENDBRANCH   7   8
BRANCH   7  18
ATOM     18  C   UNL     1     111.139 118.541 185.459  0.00  0.00    +0.000 C 
ATOM     19  C   UNL     1     111.673 118.929 185.289  0.00  0.00    +0.000 C 
ATOM     20  C   UNL     1     110.795 118.797 185.925  0.00  0.00    +0.000 C 
ENDBRANCH   7  18
ENDBRANCH   6   7
ENDBRANCH   4   6
ENDBRANCH   2   4
ENDBRANCH   1   2
BRANCH   1  21
ATOM     21  C   UNL     1     112.119 115.204 186.029  0.00  0.00    +0.000 C 
BRANCH  21  22
ATOM     22  C   UNL     1     112.599 115.072 186.545  0.00  0.00    +0.000 C 
ATOM     23  C   UNL     1     113.410 114.840 186.531  0.00  0.00    +0.000 C 
ATOM     24  C   UNL     1     112.591 115.083 187.266  0.00  0.00    +0.000 C 
ENDBRANCH  21  22
BRANCH  21  25
ATOM     25  C   UNL     1     112.046 114.752 185.479  0.00  0.00    +0.000 C 
BRANCH  25  29
ATOM     26  C   UNL     1     110.617 113.668 184.844  0.00  0.00    +0.000 A 
ATOM     27  C   UNL     1     110.397 113.347 185.465  0.00  0.00    +0.000 A 
ATOM     28  C   UNL     1     111.164 114.132 184.855  0.00  0.00    +0.000 A 
ATOM     29  C   UNL     1     111.496 114.283 185.474  0.00  0.00    +0.000 A 
ATOM     30  C   UNL     1     110.734 113.504 186.079  0.00  0.00    +0.000 A 
ATOM     31  C   UNL     1     111.282 113.968 186.091  0.00  0.00    +0.000 A 
BRANCH  27  32
ATOM     32  O   UNL     1     109.849 112.882 185.453  0.00  0.00    +0.000 OA
ATOM     33  C   UNL     1     109.628 112.566 186.062  0.00  0.00    +0.000 C 
ENDBRANCH  27  32
BRANCH  26  34
ATOM     34  O   UNL     1     110.279 113.510 184.230  0.00  0.00    +0.000 OA
BRANCH  34  35
ATOM     35  C   UNL     1     110.509 113.789 183.604  0.00  0.00    +0.000 C 
BRANCH  35  36
ATOM     36  C   UNL     1     110.155 113.647 182.993  0.00  0.00    +0.000 C 
BRANCH  36  37
ATOM     37  C   UNL     1     110.382 113.923 182.368  0.00  0.00    +0.000 C 
BRANCH  37  38
ATOM     38  O   UNL     1     110.024 113.787 181.758  0.00  0.00    +0.000 OA
ATOM     39  C   UNL     1     110.187 114.148 181.166  0.00  0.00    +0.000 C 
ENDBRANCH  37  38
ENDBRANCH  36  37
ENDBRANCH  35  36
ENDBRANCH  34  35
ENDBRANCH  26  34
ENDBRANCH  25  29
ENDBRANCH  21  25
ENDBRANCH   1  21
TORSDOF 19
ENDMDL
MODEL 8
REMARK VINA RESULT:      -6.5      2.653      4.927
REMARK  Name = 
REMARK  19 active torsions:
REMARK  status: ('A' for Active; 'I' for Inactive)
REMARK    1  A    between atoms: C_1  and  C_3
REMARK    2  A    between atoms: C_1  and  C_10
REMARK    3  A    between atoms: C_2  and  C_4
REMARK    4  A    between atoms: C_4  and  C_5
REMARK    5  A    between atoms: C_4  and  C_21
REMARK    6  A    between atoms: C_5  and  C_11
REMARK    7  A    between atoms: N_6  and  C_10
REMARK    8  A    between atoms: C_7  and  C_8
REMARK    9  A    between atoms: C_7  and  C_13
REMARK   10  A    between atoms: C_7  and  C_22
REMARK   11  A    between atoms: C_8  and  C_12
REMARK   12  A    between atoms: C_9  and  O_25
REMARK   13  A    between atoms: C_11  and  C_12
REMARK   14  A    between atoms: C_13  and  C_16
REMARK   15  A    between atoms: C_14  and  O_27
REMARK   16  A    between atoms: O_25  and  C_32
REMARK   17  A    between atoms: C_30  and  C_32
REMARK   18  A    between atoms: C_30  and  C_33
REMARK   19  A    between atoms: O_31  and  C_33
REMARK                            x       y       z     vdW  Elec       q    Type
REMARK                         _______ _______ _______ _____ _____    ______ ____
ROOT
ATOM      1  C   UNL     1     148.492 102.848 192.800  0.00  0.00    +0.000 C 
ENDROOT
BRANCH   1   2
ATOM      2  C   UNL     1     148.234 103.018 193.449  0.00  0.00    +0.000 C 
ATOM      3  N   UNL     1     147.698 103.491 193.504  0.00  0.00    +0.000 NA
BRANCH   2   4
ATOM      4  C   UNL     1     148.518 102.713 194.031  0.00  0.00    +0.000 C 
ATOM      5  O   UNL     1     149.200 102.850 194.219  0.00  0.00    +0.000 OA
BRANCH   4   6
ATOM      6  C   UNL     1     148.115 102.265 194.430  0.00  0.00    +0.000 C 
BRANCH   6   7
ATOM      7  C   UNL     1     148.409 101.929 194.993  0.00  0.00    +0.000 C 
BRANCH   7   8
ATOM      8  C   UNL     1     148.626 101.252 194.923  0.00  0.00    +0.000 C 
ATOM      9  N   UNL     1     148.141 100.738 194.775  0.00  0.00    +0.000 NA
ATOM     10  O   UNL     1     149.318 101.083 194.999  0.00  0.00    +0.000 OA
BRANCH   9  11
ATOM     11  C   UNL     1     148.357 100.056 194.704  0.00  0.00    +0.000 C 
BRANCH  11  12
ATOM     12  C   UNL     1     147.882  99.556 194.511  0.00  0.00    +0.000 C 
ATOM     13  C   UNL     1     147.664  99.863 194.989  0.00  0.00    +0.000 C 
ATOM     14  C   UNL     1     147.395  99.131 194.405  0.00  0.00    +0.000 C 
BRANCH  12  15
ATOM     15  C   UNL     1     148.029  99.124 193.951  0.00  0.00    +0.000 C 
ATOM     16  O   UNL     1     148.666  99.163 193.624  0.00  0.00    +0.000 OA
ATOM     17  N   UNL     1     147.532  98.652 193.722  0.00  0.00    +0.000 NA
ENDBRANCH  12  15
ENDBRANCH  11  12
ENDBRANCH   9  11
ENDBRANCH   7   8
BRANCH   7  18
ATOM     18  C   UNL     1     148.480 102.281 195.619  0.00  0.00    +0.000 C 
ATOM     19  C   UNL     1     147.959 102.527 195.984  0.00  0.00    +0.000 C 
ATOM     20  C   UNL     1     149.040 102.396 195.891  0.00  0.00    +0.000 C 
ENDBRANCH   7  18
ENDBRANCH   6   7
ENDBRANCH   4   6
ENDBRANCH   2   4
ENDBRANCH   1   2
BRANCH   1  21
ATOM     21  C   UNL     1     148.191 103.133 192.209  0.00  0.00    +0.000 C 
BRANCH  21  22
ATOM     22  C   UNL     1     148.382 103.788 191.989  0.00  0.00    +0.000 C 
ATOM     23  C   UNL     1     149.128 104.143 191.820  0.00  0.00    +0.000 C 
ATOM     24  C   UNL     1     148.030 104.396 191.825  0.00  0.00    +0.000 C 
ENDBRANCH  21  22
BRANCH  21  25
ATOM     25  C   UNL     1     147.701 102.758 191.847  0.00  0.00    +0.000 C 
BRANCH  25  29
ATOM     26  C   UNL     1     147.651 101.114 190.890  0.00  0.00    +0.000 A 
ATOM     27  C   UNL     1     148.332 101.089 190.618  0.00  0.00    +0.000 A 
ATOM     28  C   UNL     1     147.449 101.670 191.297  0.00  0.00    +0.000 A 
ATOM     29  C   UNL     1     147.911 102.202 191.437  0.00  0.00    +0.000 A 
ATOM     30  C   UNL     1     148.787 101.625 190.763  0.00  0.00    +0.000 A 
ATOM     31  C   UNL     1     148.584 102.181 191.170  0.00  0.00    +0.000 A 
BRANCH  27  32
ATOM     32  O   UNL     1     148.534 100.532 190.211  0.00  0.00    +0.000 OA
ATOM     33  C   UNL     1     149.234 100.383 190.123  0.00  0.00    +0.000 C 
ENDBRANCH  27  32
BRANCH  26  34
ATOM     34  O   UNL     1     147.196 100.578 190.745  0.00  0.00    +0.000 OA
BRANCH  34  35
ATOM     35  C   UNL     1     146.523 100.589 191.006  0.00  0.00    +0.000 C 
BRANCH  35  36
ATOM     36  C   UNL     1     146.069 100.050 190.858  0.00  0.00    +0.000 C 
BRANCH  36  37
ATOM     37  C   UNL     1     145.447  99.988 191.217  0.00  0.00    +0.000 C 
BRANCH  37  38
ATOM     38  O   UNL     1     144.964  99.489 191.025  0.00  0.00    +0.000 OA
ATOM     39  C   UNL     1     144.445  99.310 191.479  0.00  0.00    +0.000 C 
ENDBRANCH  37  38
ENDBRANCH  36  37
ENDBRANCH  35  36
ENDBRANCH  34  35
ENDBRANCH  26  34
ENDBRANCH  25  29
ENDBRANCH  21  25
ENDBRANCH   1  21
TORSDOF 19
ENDMDL
MODEL 9
REMARK VINA RESULT:      -6.5     45.031     48.053
REMARK  Name = 
REMARK  19 active torsions:
REMARK  status: ('A' for Active; 'I' for Inactive)
REMARK    1  A    between atoms: C_1  and  C_3
REMARK    2  A    between atoms: C_1  and  C_10
REMARK    3  A    between atoms: C_2  and  C_4
REMARK    4  A    between atoms: C_4  and  C_5
REMARK    5  A    between atoms: C_4  and  C_21
REMARK    6  A    between atoms: C_5  and  C_11
REMARK    7  A    between atoms: N_6  and  C_10
REMARK    8  A    between atoms: C_7  and  C_8
REMARK    9  A    between atoms: C_7  and  C_13
REMARK   10  A    between atoms: C_7  and  C_22
REMARK   11  A    between atoms: C_8  and  C_12
REMARK   12  A    between atoms: C_9  and  O_25
REMARK   13  A    between atoms: C_11  and  C_12
REMARK   14  A    between atoms: C_13  and  C_16
REMARK   15  A    between atoms: C_14  and  O_27
REMARK   16  A    between atoms: O_25  and  C_32
REMARK   17  A    between atoms: C_30  and  C_32
REMARK   18  A    between atoms: C_30  and  C_33
REMARK   19  A    between atoms: O_31  and  C_33
REMARK                            x       y       z     vdW  Elec       q    Type
REMARK                         _______ _______ _______ _____ _____    ______ ____
ROOT
ATOM      1  C   UNL     1     134.563 150.956 186.599  0.00  0.00    +0.000 C 
ENDROOT
BRANCH   1   2
ATOM      2  C   UNL     1     134.122 151.270 186.127  0.00  0.00    +0.000 C 
ATOM      3  N   UNL     1     134.349 151.395 185.458  0.00  0.00    +0.000 NA
BRANCH   2   4
ATOM      4  C   UNL     1     133.461 151.453 186.332  0.00  0.00    +0.000 C 
ATOM      5  O   UNL     1     133.351 151.759 186.975  0.00  0.00    +0.000 OA
BRANCH   4   6
ATOM      6  C   UNL     1     132.904 151.328 185.890  0.00  0.00    +0.000 C 
BRANCH   6   7
ATOM      7  C   UNL     1     132.246 151.552 186.074  0.00  0.00    +0.000 C 
BRANCH   7   8
ATOM      8  C   UNL     1     131.765 151.074 186.300  0.00  0.00    +0.000 C 
ATOM      9  N   UNL     1     131.427 150.656 185.817  0.00  0.00    +0.000 NA
ATOM     10  O   UNL     1     131.617 151.009 186.998  0.00  0.00    +0.000 OA
BRANCH   9  11
ATOM     11  C   UNL     1     130.942 150.175 186.042  0.00  0.00    +0.000 C 
BRANCH  11  12
ATOM     12  C   UNL     1     130.626 149.747 185.563  0.00  0.00    +0.000 C 
ATOM     13  C   UNL     1     131.179 149.527 185.691  0.00  0.00    +0.000 C 
ATOM     14  C   UNL     1     130.415 149.304 185.129  0.00  0.00    +0.000 C 
BRANCH  12  15
ATOM     15  C   UNL     1     129.960 149.904 185.331  0.00  0.00    +0.000 C 
ATOM     16  O   UNL     1     129.436 150.033 185.803  0.00  0.00    +0.000 OA
ATOM     17  N   UNL     1     129.824 149.931 184.622  0.00  0.00    +0.000 NA
ENDBRANCH  12  15
ENDBRANCH  11  12
ENDBRANCH   9  11
ENDBRANCH   7   8
BRANCH   7  18
ATOM     18  C   UNL     1     132.084 152.253 186.030  0.00  0.00    +0.000 C 
ATOM     19  C   UNL     1     132.090 152.614 185.451  0.00  0.00    +0.000 C 
ATOM     20  C   UNL     1     131.918 152.604 186.530  0.00  0.00    +0.000 C 
ENDBRANCH   7  18
ENDBRANCH   6   7
ENDBRANCH   4   6
ENDBRANCH   2   4
ENDBRANCH   1   2
BRANCH   1  21
ATOM     21  C   UNL     1     135.251 150.830 186.417  0.00  0.00    +0.000 C 
BRANCH  21  22
ATOM     22  C   UNL     1     135.750 151.332 186.527  0.00  0.00    +0.000 C 
ATOM     23  C   UNL     1     136.021 151.732 187.218  0.00  0.00    +0.000 C 
ATOM     24  C   UNL     1     136.213 151.694 186.108  0.00  0.00    +0.000 C 
ENDBRANCH  21  22
BRANCH  21  25
ATOM     25  C   UNL     1     135.428 150.200 186.127  0.00  0.00    +0.000 C 
BRANCH  25  29
ATOM     26  C   UNL     1     136.423 148.717 186.784  0.00  0.00    +0.000 A 
ATOM     27  C   UNL     1     136.069 148.577 187.410  0.00  0.00    +0.000 A 
ATOM     28  C   UNL     1     136.205 149.257 186.363  0.00  0.00    +0.000 A 
ATOM     29  C   UNL     1     135.642 149.659 186.554  0.00  0.00    +0.000 A 
ATOM     30  C   UNL     1     135.507 148.984 187.594  0.00  0.00    +0.000 A 
ATOM     31  C   UNL     1     135.290 149.523 187.173  0.00  0.00    +0.000 A 
BRANCH  27  32
ATOM     32  O   UNL     1     136.288 148.036 187.831  0.00  0.00    +0.000 OA
ATOM     33  C   UNL     1     136.035 147.976 188.504  0.00  0.00    +0.000 C 
ENDBRANCH  27  32
BRANCH  26  34
ATOM     34  O   UNL     1     136.986 148.309 186.600  0.00  0.00    +0.000 OA
BRANCH  34  35
ATOM     35  C   UNL     1     137.266 148.351 185.936  0.00  0.00    +0.000 C 
BRANCH  35  36
ATOM     36  C   UNL     1     137.839 147.952 185.760  0.00  0.00    +0.000 C 
BRANCH  36  37
ATOM     37  C   UNL     1     138.126 147.997 185.101  0.00  0.00    +0.000 C 
BRANCH  37  38
ATOM     38  O   UNL     1     138.621 147.521 184.885  0.00  0.00    +0.000 OA
ATOM     39  C   UNL     1     138.918 147.590 184.241  0.00  0.00    +0.000 C 
ENDBRANCH  37  38
ENDBRANCH  36  37
ENDBRANCH  35  36
ENDBRANCH  34  35
ENDBRANCH  26  34
ENDBRANCH  25  29
ENDBRANCH  21  25
ENDBRANCH   1  21
TORSDOF 19
ENDMDL
MODEL 10
REMARK VINA RESULT:      -6.5     70.392     72.724
REMARK  Name = 
REMARK  19 active torsions:
REMARK  status: ('A' for Active; 'I' for Inactive)
REMARK    1  A    between atoms: C_1  and  C_3
REMARK    2  A    between atoms: C_1  and  C_10
REMARK    3  A    between atoms: C_2  and  C_4
REMARK    4  A    between atoms: C_4  and  C_5
REMARK    5  A    between atoms: C_4  and  C_21
REMARK    6  A    between atoms: C_5  and  C_11
REMARK    7  A    between atoms: N_6  and  C_10
REMARK    8  A    between atoms: C_7  and  C_8
REMARK    9  A    between atoms: C_7  and  C_13
REMARK   10  A    between atoms: C_7  and  C_22
REMARK   11  A    between atoms: C_8  and  C_12
REMARK   12  A    between atoms: C_9  and  O_25
REMARK   13  A    between atoms: C_11  and  C_12
REMARK   14  A    between atoms: C_13  and  C_16
REMARK   15  A    between atoms: C_14  and  O_27
REMARK   16  A    between atoms: O_25  and  C_32
REMARK   17  A    between atoms: C_30  and  C_32
REMARK   18  A    between atoms: C_30  and  C_33
REMARK   19  A    between atoms: O_31  and  C_33
REMARK                            x       y       z     vdW  Elec       q    Type
REMARK                         _______ _______ _______ _____ _____    ______ ____
ROOT
ATOM      1  C   UNL     1     118.072 128.727 132.073  0.00  0.00    +0.000 C 
ENDROOT
BRANCH   1   2
ATOM      2  C   UNL     1     118.104 129.331 132.460  0.00  0.00    +0.000 C 
ATOM      3  N   UNL     1     117.636 129.859 132.332  0.00  0.00    +0.000 NA
BRANCH   2   4
ATOM      4  C   UNL     1     118.603 129.396 132.969  0.00  0.00    +0.000 C 
ATOM      5  O   UNL     1     118.991 128.824 133.174  0.00  0.00    +0.000 OA
BRANCH   4   6
ATOM      6  C   UNL     1     118.715 130.039 133.278  0.00  0.00    +0.000 C 
BRANCH   6   7
ATOM      7  C   UNL     1     119.282 130.133 133.709  0.00  0.00    +0.000 C 
BRANCH   7   8
ATOM      8  C   UNL     1     119.854 130.484 133.464  0.00  0.00    +0.000 C 
ATOM      9  N   UNL     1     119.796 131.184 133.295  0.00  0.00    +0.000 NA
ATOM     10  O   UNL     1     120.482 130.146 133.386  0.00  0.00    +0.000 OA
BRANCH   9  11
ATOM     11  C   UNL     1     120.370 131.539 133.049  0.00  0.00    +0.000 C 
BRANCH  11  12
ATOM     12  C   UNL     1     120.300 132.221 132.845  0.00  0.00    +0.000 C 
ATOM     13  C   UNL     1     120.197 132.180 133.444  0.00  0.00    +0.000 C 
ATOM     14  C   UNL     1     120.216 132.864 132.749  0.00  0.00    +0.000 C 
BRANCH  12  15
ATOM     15  C   UNL     1     120.399 132.397 132.152  0.00  0.00    +0.000 C 
ATOM     16  O   UNL     1     121.015 132.233 131.824  0.00  0.00    +0.000 OA
ATOM     17  N   UNL     1     119.877 132.740 131.790  0.00  0.00    +0.000 NA
ENDBRANCH  12  15
ENDBRANCH  11  12
ENDBRANCH   9  11
ENDBRANCH   7   8
BRANCH   7  18
ATOM     18  C   UNL     1     119.264 129.871 134.381  0.00  0.00    +0.000 C 
ATOM     19  C   UNL     1     118.819 130.067 134.860  0.00  0.00    +0.000 C 
ATOM     20  C   UNL     1     119.665 129.430 134.593  0.00  0.00    +0.000 C 
ENDBRANCH   7  18
ENDBRANCH   6   7
ENDBRANCH   4   6
ENDBRANCH   2   4
ENDBRANCH   1   2
BRANCH   1  21
ATOM     21  C   UNL     1     117.698 128.717 131.455  0.00  0.00    +0.000 C 
BRANCH  21  22
ATOM     22  C   UNL     1     118.017 128.898 130.839  0.00  0.00    +0.000 C 
ATOM     23  C   UNL     1     117.853 129.488 130.259  0.00  0.00    +0.000 C 
ATOM     24  C   UNL     1     118.589 128.662 130.469  0.00  0.00    +0.000 C 
ENDBRANCH  21  22
BRANCH  21  25
ATOM     25  C   UNL     1     117.009 128.526 131.464  0.00  0.00    +0.000 C 
BRANCH  25  29
ATOM     26  C   UNL     1     115.986 126.925 131.573  0.00  0.00    +0.000 A 
ATOM     27  C   UNL     1     116.483 126.427 131.367  0.00  0.00    +0.000 A 
ATOM     28  C   UNL     1     116.167 127.619 131.603  0.00  0.00    +0.000 A 
ATOM     29  C   UNL     1     116.833 127.826 131.432  0.00  0.00    +0.000 A 
ATOM     30  C   UNL     1     117.146 126.642 131.198  0.00  0.00    +0.000 A 
ATOM     31  C   UNL     1     117.327 127.337 131.227  0.00  0.00    +0.000 A 
BRANCH  27  32
ATOM     32  O   UNL     1     116.301 125.732 131.337  0.00  0.00    +0.000 OA
ATOM     33  C   UNL     1     116.787 125.239 131.136  0.00  0.00    +0.000 C 
ENDBRANCH  27  32
BRANCH  26  34
ATOM     34  O   UNL     1     115.322 126.708 131.742  0.00  0.00    +0.000 OA
BRANCH  34  35
ATOM     35  C   UNL     1     114.823 127.188 131.947  0.00  0.00    +0.000 C 
BRANCH  35  36
ATOM     36  C   UNL     1     114.156 126.969 132.110  0.00  0.00    +0.000 C 
BRANCH  36  37
ATOM     37  C   UNL     1     113.667 127.439 132.353  0.00  0.00    +0.000 C 
BRANCH  37  38
ATOM     38  O   UNL     1     112.979 127.241 132.429  0.00  0.00    +0.000 OA
ATOM     39  C   UNL     1     112.534 127.654 132.802  0.00  0.00    +0.000 C 
ENDBRANCH  37  38
ENDBRANCH  36  37
ENDBRANCH  35  36
ENDBRANCH  34  35
ENDBRANCH  26  34
ENDBRANCH  25  29
ENDBRANCH  21  25
ENDBRANCH   1  21
TORSDOF 19
ENDMDL
MODEL 11
REMARK VINA RESULT:      -6.4     66.228     69.135
REMARK  Name = 
REMARK  19 active torsions:
REMARK  status: ('A' for Active; 'I' for Inactive)
REMARK    1  A    between atoms: C_1  and  C_3
REMARK    2  A    between atoms: C_1  and  C_10
REMARK    3  A    between atoms: C_2  and  C_4
REMARK    4  A    between atoms: C_4  and  C_5
REMARK    5  A    between atoms: C_4  and  C_21
REMARK    6  A    between atoms: C_5  and  C_11
REMARK    7  A    between atoms: N_6  and  C_10
REMARK    8  A    between atoms: C_7  and  C_8
REMARK    9  A    between atoms: C_7  and  C_13
REMARK   10  A    between atoms: C_7  and  C_22
REMARK   11  A    between atoms: C_8  and  C_12
REMARK   12  A    between atoms: C_9  and  O_25
REMARK   13  A    between atoms: C_11  and  C_12
REMARK   14  A    between atoms: C_13  and  C_16
REMARK   15  A    between atoms: C_14  and  O_27
REMARK   16  A    between atoms: O_25  and  C_32
REMARK   17  A    between atoms: C_30  and  C_32
REMARK   18  A    between atoms: C_30  and  C_33
REMARK   19  A    between atoms: O_31  and  C_33
REMARK                            x       y       z     vdW  Elec       q    Type
REMARK                         _______ _______ _______ _____ _____    ______ ____
ROOT
ATOM      1  C   UNL     1     142.064 133.428 131.747  0.00  0.00    +0.000 C 
ENDROOT
BRANCH   1   2
ATOM      2  C   UNL     1     142.726 133.417 132.026  0.00  0.00    +0.000 C 
ATOM      3  N   UNL     1     143.149 133.992 131.958  0.00  0.00    +0.000 NA
BRANCH   2   4
ATOM      4  C   UNL     1     142.952 132.832 132.369  0.00  0.00    +0.000 C 
ATOM      5  O   UNL     1     142.487 132.423 132.739  0.00  0.00    +0.000 OA
BRANCH   4   6
ATOM      6  C   UNL     1     143.651 132.651 132.343  0.00  0.00    +0.000 C 
BRANCH   6   7
ATOM      7  C   UNL     1     143.870 132.031 132.634  0.00  0.00    +0.000 C 
BRANCH   7   8
ATOM      8  C   UNL     1     144.081 131.499 132.206  0.00  0.00    +0.000 C 
ATOM      9  N   UNL     1     144.662 131.590 131.787  0.00  0.00    +0.000 NA
ATOM     10  O   UNL     1     143.720 130.880 132.192  0.00  0.00    +0.000 OA
BRANCH   9  11
ATOM     11  C   UNL     1     144.876 131.056 131.356  0.00  0.00    +0.000 C 
BRANCH  11  12
ATOM     12  C   UNL     1     145.437 131.158 130.923  0.00  0.00    +0.000 C 
ATOM     13  C   UNL     1     144.937 131.383 130.657  0.00  0.00    +0.000 C 
ATOM     14  C   UNL     1     145.889 131.292 130.468  0.00  0.00    +0.000 C 
BRANCH  12  15
ATOM     15  C   UNL     1     146.091 130.932 131.129  0.00  0.00    +0.000 C 
ATOM     16  O   UNL     1     146.609 131.409 131.267  0.00  0.00    +0.000 OA
ATOM     17  N   UNL     1     146.223 130.225 131.194  0.00  0.00    +0.000 NA
ENDBRANCH  12  15
ENDBRANCH  11  12
ENDBRANCH   9  11
ENDBRANCH   7   8
BRANCH   7  18
ATOM     18  C   UNL     1     143.873 131.957 133.351  0.00  0.00    +0.000 C 
ATOM     19  C   UNL     1     144.258 132.326 133.776  0.00  0.00    +0.000 C 
ATOM     20  C   UNL     1     143.513 131.537 133.658  0.00  0.00    +0.000 C 
ENDBRANCH   7  18
ENDBRANCH   6   7
ENDBRANCH   4   6
ENDBRANCH   2   4
ENDBRANCH   1   2
BRANCH   1  21
ATOM     21  C   UNL     1     141.859 133.985 131.334  0.00  0.00    +0.000 C 
BRANCH  21  22
ATOM     22  C   UNL     1     141.580 134.572 131.636  0.00  0.00    +0.000 C 
ATOM     23  C   UNL     1     141.706 135.397 131.512  0.00  0.00    +0.000 C 
ATOM     24  C   UNL     1     141.093 134.701 132.152  0.00  0.00    +0.000 C 
ENDBRANCH  21  22
BRANCH  21  25
ATOM     25  C   UNL     1     141.937 133.944 130.624  0.00  0.00    +0.000 C 
BRANCH  25  29
ATOM     26  C   UNL     1     141.122 132.986 129.197  0.00  0.00    +0.000 A 
ATOM     27  C   UNL     1     140.434 132.926 129.442  0.00  0.00    +0.000 A 
ATOM     28  C   UNL     1     141.615 133.324 129.594  0.00  0.00    +0.000 A 
ATOM     29  C   UNL     1     141.436 133.605 130.230  0.00  0.00    +0.000 A 
ATOM     30  C   UNL     1     140.263 133.209 130.079  0.00  0.00    +0.000 A 
ATOM     31  C   UNL     1     140.757 133.548 130.476  0.00  0.00    +0.000 A 
BRANCH  27  32
ATOM     32  O   UNL     1     139.940 132.587 129.045  0.00  0.00    +0.000 OA
ATOM     33  C   UNL     1     139.265 132.516 129.288  0.00  0.00    +0.000 C 
ENDBRANCH  27  32
BRANCH  26  34
ATOM     34  O   UNL     1     141.292 132.702 128.559  0.00  0.00    +0.000 OA
BRANCH  34  35
ATOM     35  C   UNL     1     141.846 132.966 128.178  0.00  0.00    +0.000 C 
BRANCH  35  36
ATOM     36  C   UNL     1     142.052 132.642 127.569  0.00  0.00    +0.000 C 
BRANCH  36  37
ATOM     37  C   UNL     1     142.470 132.988 127.095  0.00  0.00    +0.000 C 
BRANCH  37  38
ATOM     38  O   UNL     1     142.531 132.748 126.419  0.00  0.00    +0.000 OA
ATOM     39  C   UNL     1     143.021 133.033 125.987  0.00  0.00    +0.000 C 
ENDBRANCH  37  38
ENDBRANCH  36  37
ENDBRANCH  35  36
ENDBRANCH  34  35
ENDBRANCH  26  34
ENDBRANCH  25  29
ENDBRANCH  21  25
ENDBRANCH   1  21
TORSDOF 19
ENDMDL
MODEL 12
REMARK VINA RESULT:      -6.4     62.581     65.072
REMARK  Name = 
REMARK  19 active torsions:
REMARK  status: ('A' for Active; 'I' for Inactive)
REMARK    1  A    between atoms: C_1  and  C_3
REMARK    2  A    between atoms: C_1  and  C_10
REMARK    3  A    between atoms: C_2  and  C_4
REMARK    4  A    between atoms: C_4  and  C_5
REMARK    5  A    between atoms: C_4  and  C_21
REMARK    6  A    between atoms: C_5  and  C_11
REMARK    7  A    between atoms: N_6  and  C_10
REMARK    8  A    between atoms: C_7  and  C_8
REMARK    9  A    between atoms: C_7  and  C_13
REMARK   10  A    between atoms: C_7  and  C_22
REMARK   11  A    between atoms: C_8  and  C_12
REMARK   12  A    between atoms: C_9  and  O_25
REMARK   13  A    between atoms: C_11  and  C_12
REMARK   14  A    between atoms: C_13  and  C_16
REMARK   15  A    between atoms: C_14  and  O_27
REMARK   16  A    between atoms: O_25  and  C_32
REMARK   17  A    between atoms: C_30  and  C_32
REMARK   18  A    between atoms: C_30  and  C_33
REMARK   19  A    between atoms: O_31  and  C_33
REMARK                            x       y       z     vdW  Elec       q    Type
REMARK                         _______ _______ _______ _____ _____    ______ ____
ROOT
ATOM      1  C   UNL     1     150.445 132.011 134.592  0.00  0.00    +0.000 C 
ENDROOT
BRANCH   1   2
ATOM      2  C   UNL     1     150.599 131.476 134.138  0.00  0.00    +0.000 C 
ATOM      3  N   UNL     1     151.144 131.549 133.677  0.00  0.00    +0.000 NA
BRANCH   2   4
ATOM      4  C   UNL     1     150.206 130.879 134.153  0.00  0.00    +0.000 C 
ATOM      5  O   UNL     1     149.977 130.609 134.781  0.00  0.00    +0.000 OA
BRANCH   4   6
ATOM      6  C   UNL     1     150.040 130.547 133.533  0.00  0.00    +0.000 C 
BRANCH   6   7
ATOM      7  C   UNL     1     149.600 129.978 133.541  0.00  0.00    +0.000 C 
BRANCH   7   8
ATOM      8  C   UNL     1     148.921 130.058 133.334  0.00  0.00    +0.000 C 
ATOM      9  N   UNL     1     148.778 130.255 132.654  0.00  0.00    +0.000 NA
ATOM     10  O   UNL     1     148.385 129.944 133.796  0.00  0.00    +0.000 OA
BRANCH   9  11
ATOM     11  C   UNL     1     148.095 130.336 132.444  0.00  0.00    +0.000 C 
BRANCH  11  12
ATOM     12  C   UNL     1     147.958 130.569 131.781  0.00  0.00    +0.000 C 
ATOM     13  C   UNL     1     148.202 130.012 131.750  0.00  0.00    +0.000 C 
ATOM     14  C   UNL     1     147.867 130.700 131.146  0.00  0.00    +0.000 C 
BRANCH  12  15
ATOM     15  C   UNL     1     147.665 131.223 131.688  0.00  0.00    +0.000 C 
ATOM     16  O   UNL     1     148.048 131.747 131.383  0.00  0.00    +0.000 OA
ATOM     17  N   UNL     1     146.987 131.347 131.902  0.00  0.00    +0.000 NA
ENDBRANCH  12  15
ENDBRANCH  11  12
ENDBRANCH   9  11
ENDBRANCH   7   8
BRANCH   7  18
ATOM     18  C   UNL     1     149.851 129.338 133.758  0.00  0.00    +0.000 C 
ATOM     19  C   UNL     1     150.359 128.999 133.453  0.00  0.00    +0.000 C 
ATOM     20  C   UNL     1     149.621 129.025 134.258  0.00  0.00    +0.000 C 
ENDBRANCH   7  18
ENDBRANCH   6   7
ENDBRANCH   4   6
ENDBRANCH   2   4
ENDBRANCH   1   2
BRANCH   1  21
ATOM     21  C   UNL     1     150.817 132.630 134.557  0.00  0.00    +0.000 C 
BRANCH  21  22
ATOM     22  C   UNL     1     150.593 133.160 134.129  0.00  0.00    +0.000 C 
ATOM     23  C   UNL     1     149.846 133.537 134.025  0.00  0.00    +0.000 C 
ATOM     24  C   UNL     1     150.899 133.578 133.628  0.00  0.00    +0.000 C 
ENDBRANCH  21  22
BRANCH  21  25
ATOM     25  C   UNL     1     151.409 132.708 134.950  0.00  0.00    +0.000 C 
BRANCH  25  29
ATOM     26  C   UNL     1     151.799 132.929 136.800  0.00  0.00    +0.000 A 
ATOM     27  C   UNL     1     151.243 133.357 137.010  0.00  0.00    +0.000 A 
ATOM     28  C   UNL     1     151.848 132.717 136.115  0.00  0.00    +0.000 A 
ATOM     29  C   UNL     1     151.354 132.924 135.637  0.00  0.00    +0.000 A 
ATOM     30  C   UNL     1     150.754 133.559 136.526  0.00  0.00    +0.000 A 
ATOM     31  C   UNL     1     150.802 133.348 135.841  0.00  0.00    +0.000 A 
BRANCH  27  32
ATOM     32  O   UNL     1     151.194 133.569 137.696  0.00  0.00    +0.000 OA
ATOM     33  C   UNL     1     150.685 134.039 137.894  0.00  0.00    +0.000 C 
ENDBRANCH  27  32
BRANCH  26  34
ATOM     34  O   UNL     1     152.289 132.727 137.285  0.00  0.00    +0.000 OA
BRANCH  34  35
ATOM     35  C   UNL     1     152.845 132.308 137.090  0.00  0.00    +0.000 C 
BRANCH  35  36
ATOM     36  C   UNL     1     153.342 132.119 137.576  0.00  0.00    +0.000 C 
BRANCH  36  37
ATOM     37  C   UNL     1     153.886 131.685 137.390  0.00  0.00    +0.000 C 
BRANCH  37  38
ATOM     38  O   UNL     1     154.391 131.508 137.872  0.00  0.00    +0.000 OA
ATOM     39  C   UNL     1     154.933 131.089 137.675  0.00  0.00    +0.000 C 
ENDBRANCH  37  38
ENDBRANCH  36  37
ENDBRANCH  35  36
ENDBRANCH  34  35
ENDBRANCH  26  34
ENDBRANCH  25  29
ENDBRANCH  21  25
ENDBRANCH   1  21
TORSDOF 19
ENDMDL
MODEL 13
REMARK VINA RESULT:      -6.3      1.809      3.783
REMARK  Name = 
REMARK  19 active torsions:
REMARK  status: ('A' for Active; 'I' for Inactive)
REMARK    1  A    between atoms: C_1  and  C_3
REMARK    2  A    between atoms: C_1  and  C_10
REMARK    3  A    between atoms: C_2  and  C_4
REMARK    4  A    between atoms: C_4  and  C_5
REMARK    5  A    between atoms: C_4  and  C_21
REMARK    6  A    between atoms: C_5  and  C_11
REMARK    7  A    between atoms: N_6  and  C_10
REMARK    8  A    between atoms: C_7  and  C_8
REMARK    9  A    between atoms: C_7  and  C_13
REMARK   10  A    between atoms: C_7  and  C_22
REMARK   11  A    between atoms: C_8  and  C_12
REMARK   12  A    between atoms: C_9  and  O_25
REMARK   13  A    between atoms: C_11  and  C_12
REMARK   14  A    between atoms: C_13  and  C_16
REMARK   15  A    between atoms: C_14  and  O_27
REMARK   16  A    between atoms: O_25  and  C_32
REMARK   17  A    between atoms: C_30  and  C_32
REMARK   18  A    between atoms: C_30  and  C_33
REMARK   19  A    between atoms: O_31  and  C_33
REMARK                            x       y       z     vdW  Elec       q    Type
REMARK                         _______ _______ _______ _____ _____    ______ ____
ROOT
ATOM      1  C   UNL     1     148.825 106.611 192.343  0.00  0.00    +0.000 C 
ENDROOT
BRANCH   1   2
ATOM      2  C   UNL     1     148.303 106.118 192.384  0.00  0.00    +0.000 C 
ATOM      3  N   UNL     1     147.626 106.327 192.494  0.00  0.00    +0.000 NA
BRANCH   2   4
ATOM      4  C   UNL     1     148.469 105.426 192.314  0.00  0.00    +0.000 C 
ATOM      5  O   UNL     1     149.006 105.221 191.878  0.00  0.00    +0.000 OA
BRANCH   4   6
ATOM      6  C   UNL     1     148.094 104.931 192.683  0.00  0.00    +0.000 C 
BRANCH   6   7
ATOM      7  C   UNL     1     148.314 104.247 192.686  0.00  0.00    +0.000 C 
BRANCH   7   8
ATOM      8  C   UNL     1     148.646 103.989 193.264  0.00  0.00    +0.000 C 
ATOM      9  N   UNL     1     148.293 103.960 193.893  0.00  0.00    +0.000 NA
ATOM     10  O   UNL     1     149.324 103.759 193.221  0.00  0.00    +0.000 OA
BRANCH   9  11
ATOM     11  C   UNL     1     148.625 103.701 194.476  0.00  0.00    +0.000 C 
BRANCH  11  12
ATOM     12  C   UNL     1     148.277 103.688 195.101  0.00  0.00    +0.000 C 
ATOM     13  C   UNL     1     148.043 103.261 194.735  0.00  0.00    +0.000 C 
ATOM     14  C   UNL     1     147.908 103.607 195.636  0.00  0.00    +0.000 C 
BRANCH  12  15
ATOM     15  C   UNL     1     148.465 104.152 195.622  0.00  0.00    +0.000 C 
ATOM     16  O   UNL     1     148.009 104.666 195.827  0.00  0.00    +0.000 OA
ATOM     17  N   UNL     1     149.113 104.097 195.935  0.00  0.00    +0.000 NA
ENDBRANCH  12  15
ENDBRANCH  11  12
ENDBRANCH   9  11
ENDBRANCH   7   8
BRANCH   7  18
ATOM     18  C   UNL     1     148.197 103.833 192.107  0.00  0.00    +0.000 C 
ATOM     19  C   UNL     1     147.580 103.677 191.863  0.00  0.00    +0.000 C 
ATOM     20  C   UNL     1     148.663 103.572 191.766  0.00  0.00    +0.000 C 
ENDBRANCH   7  18
ENDBRANCH   6   7
ENDBRANCH   4   6
ENDBRANCH   2   4
ENDBRANCH   1   2
BRANCH   1  21
ATOM     21  C   UNL     1     148.671 107.306 192.466  0.00  0.00    +0.000 C 
BRANCH  21  22
ATOM     22  C   UNL     1     148.440 107.723 191.930  0.00  0.00    +0.000 C 
ATOM     23  C   UNL     1     147.780 108.242 191.849  0.00  0.00    +0.000 C 
ATOM     24  C   UNL     1     148.666 107.869 191.261  0.00  0.00    +0.000 C 
ENDBRANCH  21  22
BRANCH  21  25
ATOM     25  C   UNL     1     148.750 107.573 193.125  0.00  0.00    +0.000 C 
BRANCH  25  29
ATOM     26  C   UNL     1     150.236 107.919 194.263  0.00  0.00    +0.000 A 
ATOM     27  C   UNL     1     150.711 108.211 193.787  0.00  0.00    +0.000 A 
ATOM     28  C   UNL     1     149.587 107.709 194.036  0.00  0.00    +0.000 A 
ATOM     29  C   UNL     1     149.404 107.786 193.346  0.00  0.00    +0.000 A 
ATOM     30  C   UNL     1     150.520 108.284 193.100  0.00  0.00    +0.000 A 
ATOM     31  C   UNL     1     149.871 108.075 192.873  0.00  0.00    +0.000 A 
BRANCH  27  32
ATOM     32  O   UNL     1     151.361 108.421 194.015  0.00  0.00    +0.000 OA
ATOM     33  C   UNL     1     151.825 108.723 193.554  0.00  0.00    +0.000 C 
ENDBRANCH  27  32
BRANCH  26  34
ATOM     34  O   UNL     1     150.428 107.846 194.951  0.00  0.00    +0.000 OA
BRANCH  34  35
ATOM     35  C   UNL     1     149.932 107.695 195.454  0.00  0.00    +0.000 C 
BRANCH  35  36
ATOM     36  C   UNL     1     150.137 107.534 196.126  0.00  0.00    +0.000 C 
BRANCH  36  37
ATOM     37  C   UNL     1     149.670 107.587 196.672  0.00  0.00    +0.000 C 
BRANCH  37  38
ATOM     38  O   UNL     1     149.764 107.198 197.271  0.00  0.00    +0.000 OA
ATOM     39  C   UNL     1     149.536 107.454 197.895  0.00  0.00    +0.000 C 
ENDBRANCH  37  38
ENDBRANCH  36  37
ENDBRANCH  35  36
ENDBRANCH  34  35
ENDBRANCH  26  34
ENDBRANCH  25  29
ENDBRANCH  21  25
ENDBRANCH   1  21
TORSDOF 19
ENDMDL
MODEL 14
REMARK VINA RESULT:      -6.3     62.945     65.871
REMARK  Name = 
REMARK  19 active torsions:
REMARK  status: ('A' for Active; 'I' for Inactive)
REMARK    1  A    between atoms: C_1  and  C_3
REMARK    2  A    between atoms: C_1  and  C_10
REMARK    3  A    between atoms: C_2  and  C_4
REMARK    4  A    between atoms: C_4  and  C_5
REMARK    5  A    between atoms: C_4  and  C_21
REMARK    6  A    between atoms: C_5  and  C_11
REMARK    7  A    between atoms: N_6  and  C_10
REMARK    8  A    between atoms: C_7  and  C_8
REMARK    9  A    between atoms: C_7  and  C_13
REMARK   10  A    between atoms: C_7  and  C_22
REMARK   11  A    between atoms: C_8  and  C_12
REMARK   12  A    between atoms: C_9  and  O_25
REMARK   13  A    between atoms: C_11  and  C_12
REMARK   14  A    between atoms: C_13  and  C_16
REMARK   15  A    between atoms: C_14  and  O_27
REMARK   16  A    between atoms: O_25  and  C_32
REMARK   17  A    between atoms: C_30  and  C_32
REMARK   18  A    between atoms: C_30  and  C_33
REMARK   19  A    between atoms: O_31  and  C_33
REMARK                            x       y       z     vdW  Elec       q    Type
REMARK                         _______ _______ _______ _____ _____    ______ ____
ROOT
ATOM      1  C   UNL     1     150.193 132.554 132.612  0.00  0.00    +0.000 C 
ENDROOT
BRANCH   1   2
ATOM      2  C   UNL     1     149.483 132.666 132.634  0.00  0.00    +0.000 C 
ATOM      3  N   UNL     1     149.224 133.226 133.000  0.00  0.00    +0.000 NA
BRANCH   2   4
ATOM      4  C   UNL     1     149.047 132.217 132.289  0.00  0.00    +0.000 C 
ATOM      5  O   UNL     1     149.052 132.185 131.568  0.00  0.00    +0.000 OA
BRANCH   4   6
ATOM      6  C   UNL     1     148.599 131.794 132.667  0.00  0.00    +0.000 C 
BRANCH   6   7
ATOM      7  C   UNL     1     148.223 131.283 132.330  0.00  0.00    +0.000 C 
BRANCH   7   8
ATOM      8  C   UNL     1     148.449 130.606 132.359  0.00  0.00    +0.000 C 
ATOM      9  N   UNL     1     148.489 130.271 132.998  0.00  0.00    +0.000 NA
ATOM     10  O   UNL     1     148.636 130.260 131.759  0.00  0.00    +0.000 OA
BRANCH   9  11
ATOM     11  C   UNL     1     148.717 129.590 133.029  0.00  0.00    +0.000 C 
BRANCH  11  12
ATOM     12  C   UNL     1     148.779 129.270 133.666  0.00  0.00    +0.000 C 
ATOM     13  C   UNL     1     148.189 129.359 133.545  0.00  0.00    +0.000 C 
ATOM     14  C   UNL     1     148.742 128.980 134.252  0.00  0.00    +0.000 C 
BRANCH  12  15
ATOM     15  C   UNL     1     149.435 129.110 133.921  0.00  0.00    +0.000 C 
ATOM     16  O   UNL     1     149.626 129.319 134.580  0.00  0.00    +0.000 OA
ATOM     17  N   UNL     1     149.900 128.739 133.511  0.00  0.00    +0.000 NA
ENDBRANCH  12  15
ENDBRANCH  11  12
ENDBRANCH   9  11
ENDBRANCH   7   8
BRANCH   7  18
ATOM     18  C   UNL     1     147.624 131.461 131.970  0.00  0.00    +0.000 C 
ATOM     19  C   UNL     1     147.071 131.740 132.255  0.00  0.00    +0.000 C 
ATOM     20  C   UNL     1     147.555 131.374 131.347  0.00  0.00    +0.000 C 
ENDBRANCH   7  18
ENDBRANCH   6   7
ENDBRANCH   4   6
ENDBRANCH   2   4
ENDBRANCH   1   2
BRANCH   1  21
ATOM     21  C   UNL     1     150.638 133.014 132.948  0.00  0.00    +0.000 C 
BRANCH  21  22
ATOM     22  C   UNL     1     150.909 133.575 132.594  0.00  0.00    +0.000 C 
ATOM     23  C   UNL     1     150.996 134.391 132.790  0.00  0.00    +0.000 C 
ATOM     24  C   UNL     1     151.210 133.675 131.946  0.00  0.00    +0.000 C 
ENDBRANCH  21  22
BRANCH  21  25
ATOM     25  C   UNL     1     150.805 132.904 133.635  0.00  0.00    +0.000 C 
BRANCH  25  29
ATOM     26  C   UNL     1     151.936 131.770 134.664  0.00  0.00    +0.000 A 
ATOM     27  C   UNL     1     152.358 131.481 134.140  0.00  0.00    +0.000 A 
ATOM     28  C   UNL     1     151.422 132.242 134.490  0.00  0.00    +0.000 A 
ATOM     29  C   UNL     1     151.323 132.429 133.804  0.00  0.00    +0.000 A 
ATOM     30  C   UNL     1     152.252 131.674 133.457  0.00  0.00    +0.000 A 
ATOM     31  C   UNL     1     151.739 132.145 133.283  0.00  0.00    +0.000 A 
BRANCH  27  32
ATOM     32  O   UNL     1     152.872 131.009 134.315  0.00  0.00    +0.000 OA
ATOM     33  C   UNL     1     153.262 130.691 133.799  0.00  0.00    +0.000 C 
ENDBRANCH  27  32
BRANCH  26  34
ATOM     34  O   UNL     1     152.042 131.577 135.347  0.00  0.00    +0.000 OA
BRANCH  34  35
ATOM     35  C   UNL     1     151.755 131.963 135.886  0.00  0.00    +0.000 C 
BRANCH  35  36
ATOM     36  C   UNL     1     151.778 131.714 136.561  0.00  0.00    +0.000 C 
BRANCH  36  37
ATOM     37  C   UNL     1     151.775 132.171 137.118  0.00  0.00    +0.000 C 
BRANCH  37  38
ATOM     38  O   UNL     1     151.725 131.923 137.793  0.00  0.00    +0.000 OA
ATOM     39  C   UNL     1     151.745 132.381 138.338  0.00  0.00    +0.000 C 
ENDBRANCH  37  38
ENDBRANCH  36  37
ENDBRANCH  35  36
ENDBRANCH  34  35
ENDBRANCH  26  34
ENDBRANCH  25  29
ENDBRANCH  21  25
ENDBRANCH   1  21
TORSDOF 19
ENDMDL
MODEL 15
REMARK VINA RESULT:      -6.3     96.024     98.126
REMARK  Name = 
REMARK  19 active torsions:
REMARK  status: ('A' for Active; 'I' for Inactive)
REMARK    1  A    between atoms: C_1  and  C_3
REMARK    2  A    between atoms: C_1  and  C_10
REMARK    3  A    between atoms: C_2  and  C_4
REMARK    4  A    between atoms: C_4  and  C_5
REMARK    5  A    between atoms: C_4  and  C_21
REMARK    6  A    between atoms: C_5  and  C_11
REMARK    7  A    between atoms: N_6  and  C_10
REMARK    8  A    between atoms: C_7  and  C_8
REMARK    9  A    between atoms: C_7  and  C_13
REMARK   10  A    between atoms: C_7  and  C_22
REMARK   11  A    between atoms: C_8  and  C_12
REMARK   12  A    between atoms: C_9  and  O_25
REMARK   13  A    between atoms: C_11  and  C_12
REMARK   14  A    between atoms: C_13  and  C_16
REMARK   15  A    between atoms: C_14  and  O_27
REMARK   16  A    between atoms: O_25  and  C_32
REMARK   17  A    between atoms: C_30  and  C_32
REMARK   18  A    between atoms: C_30  and  C_33
REMARK   19  A    between atoms: O_31  and  C_33
REMARK                            x       y       z     vdW  Elec       q    Type
REMARK                         _______ _______ _______ _____ _____    ______ ____
ROOT
ATOM      1  C   UNL     1      97.382 130.634 113.030  0.00  0.00    +0.000 C 
ENDROOT
BRANCH   1   2
ATOM      2  C   UNL     1      96.695 130.845 113.022  0.00  0.00    +0.000 C 
ATOM      3  N   UNL     1      96.313 130.786 112.418  0.00  0.00    +0.000 NA
BRANCH   2   4
ATOM      4  C   UNL     1      96.403 131.111 113.619  0.00  0.00    +0.000 C 
ATOM      5  O   UNL     1      96.739 131.630 113.990  0.00  0.00    +0.000 OA
BRANCH   4   6
ATOM      6  C   UNL     1      95.767 130.857 113.848  0.00  0.00    +0.000 C 
BRANCH   6   7
ATOM      7  C   UNL     1      95.514 131.057 114.490  0.00  0.00    +0.000 C 
BRANCH   7   8
ATOM      8  C   UNL     1      95.589 130.618 115.049  0.00  0.00    +0.000 C 
ATOM      9  N   UNL     1      95.246 129.983 115.050  0.00  0.00    +0.000 NA
ATOM     10  O   UNL     1      96.002 130.805 115.605  0.00  0.00    +0.000 OA
BRANCH   9  11
ATOM     11  C   UNL     1      95.320 129.539 115.611  0.00  0.00    +0.000 C 
BRANCH  11  12
ATOM     12  C   UNL     1      94.988 128.905 115.603  0.00  0.00    +0.000 C 
ATOM     13  C   UNL     1      94.578 129.343 115.709  0.00  0.00    +0.000 C 
ATOM     14  C   UNL     1      94.606 128.373 115.613  0.00  0.00    +0.000 C 
BRANCH  12  15
ATOM     15  C   UNL     1      95.372 128.305 115.487  0.00  0.00    +0.000 C 
ATOM     16  O   UNL     1      95.220 127.884 114.927  0.00  0.00    +0.000 OA
ATOM     17  N   UNL     1      95.910 128.129 115.936  0.00  0.00    +0.000 NA
ENDBRANCH  12  15
ENDBRANCH  11  12
ENDBRANCH   9  11
ENDBRANCH   7   8
BRANCH   7  18
ATOM     18  C   UNL     1      95.189 131.697 114.560  0.00  0.00    +0.000 C 
ATOM     19  C   UNL     1      95.424 132.210 114.943  0.00  0.00    +0.000 C 
ATOM     20  C   UNL     1      94.647 131.845 114.267  0.00  0.00    +0.000 C 
ENDBRANCH   7  18
ENDBRANCH   6   7
ENDBRANCH   4   6
ENDBRANCH   2   4
ENDBRANCH   1   2
BRANCH   1  21
ATOM     21  C   UNL     1      97.660 130.301 112.453  0.00  0.00    +0.000 C 
BRANCH  21  22
ATOM     22  C   UNL     1      97.952 130.684 111.922  0.00  0.00    +0.000 C 
ATOM     23  C   UNL     1      98.468 131.351 111.911  0.00  0.00    +0.000 C 
ATOM     24  C   UNL     1      97.928 130.662 111.202  0.00  0.00    +0.000 C 
ENDBRANCH  21  22
BRANCH  21  25
ATOM     25  C   UNL     1      97.642 129.586 112.416  0.00  0.00    +0.000 C 
BRANCH  25  29
ATOM     26  C   UNL     1      98.538 128.100 113.196  0.00  0.00    +0.000 A 
ATOM     27  C   UNL     1      99.130 128.426 113.481  0.00  0.00    +0.000 A 
ATOM     28  C   UNL     1      98.049 128.491 112.845  0.00  0.00    +0.000 A 
ATOM     29  C   UNL     1      98.138 129.199 112.771  0.00  0.00    +0.000 A 
ATOM     30  C   UNL     1      99.211 129.134 113.403  0.00  0.00    +0.000 A 
ATOM     31  C   UNL     1      98.722 129.525 113.051  0.00  0.00    +0.000 A 
BRANCH  27  32
ATOM     32  O   UNL     1      99.620 128.034 113.833  0.00  0.00    +0.000 OA
ATOM     33  C   UNL     1     100.229 128.341 114.066  0.00  0.00    +0.000 C 
ENDBRANCH  27  32
BRANCH  26  34
ATOM     34  O   UNL     1      98.457 127.390 113.275  0.00  0.00    +0.000 OA
BRANCH  34  35
ATOM     35  C   UNL     1      97.854 127.064 113.048  0.00  0.00    +0.000 C 
BRANCH  35  36
ATOM     36  C   UNL     1      97.776 126.352 113.128  0.00  0.00    +0.000 C 
BRANCH  36  37
ATOM     37  C   UNL     1      97.157 126.031 112.950  0.00  0.00    +0.000 C 
BRANCH  37  38
ATOM     38  O   UNL     1      97.080 125.319 113.028  0.00  0.00    +0.000 OA
ATOM     39  C   UNL     1      96.441 125.022 112.923  0.00  0.00    +0.000 C 
ENDBRANCH  37  38
ENDBRANCH  36  37
ENDBRANCH  35  36
ENDBRANCH  34  35
ENDBRANCH  26  34
ENDBRANCH  25  29
ENDBRANCH  21  25
ENDBRANCH   1  21
TORSDOF 19
ENDMDL
MODEL 16
REMARK VINA RESULT:      -6.3     60.800     63.244
REMARK  Name = 
REMARK  19 active torsions:
REMARK  status: ('A' for Active; 'I' for Inactive)
REMARK    1  A    between atoms: C_1  and  C_3
REMARK    2  A    between atoms: C_1  and  C_10
REMARK    3  A    between atoms: C_2  and  C_4
REMARK    4  A    between atoms: C_4  and  C_5
REMARK    5  A    between atoms: C_4  and  C_21
REMARK    6  A    between atoms: C_5  and  C_11
REMARK    7  A    between atoms: N_6  and  C_10
REMARK    8  A    between atoms: C_7  and  C_8
REMARK    9  A    between atoms: C_7  and  C_13
REMARK   10  A    between atoms: C_7  and  C_22
REMARK   11  A    between atoms: C_8  and  C_12
REMARK   12  A    between atoms: C_9  and  O_25
REMARK   13  A    between atoms: C_11  and  C_12
REMARK   14  A    between atoms: C_13  and  C_16
REMARK   15  A    between atoms: C_14  and  O_27
REMARK   16  A    between atoms: O_25  and  C_32
REMARK   17  A    between atoms: C_30  and  C_32
REMARK   18  A    between atoms: C_30  and  C_33
REMARK   19  A    between atoms: O_31  and  C_33
REMARK                            x       y       z     vdW  Elec       q    Type
REMARK                         _______ _______ _______ _____ _____    ______ ____
ROOT
ATOM      1  C   UNL     1     121.419 159.481 177.472  0.00  0.00    +0.000 C 
ENDROOT
BRANCH   1   2
ATOM      2  C   UNL     1     120.729 159.683 177.486  0.00  0.00    +0.000 C 
ATOM      3  N   UNL     1     120.215 159.185 177.536  0.00  0.00    +0.000 NA
BRANCH   2   4
ATOM      4  C   UNL     1     120.566 160.379 177.452  0.00  0.00    +0.000 C 
ATOM      5  O   UNL     1     120.814 160.785 176.909  0.00  0.00    +0.000 OA
BRANCH   4   6
ATOM      6  C   UNL     1     120.151 160.673 177.964  0.00  0.00    +0.000 C 
BRANCH   6   7
ATOM      7  C   UNL     1     119.983 161.371 177.928  0.00  0.00    +0.000 C 
BRANCH   7   8
ATOM      8  C   UNL     1     120.333 161.837 178.340  0.00  0.00    +0.000 C 
ATOM      9  N   UNL     1     120.163 161.892 179.040  0.00  0.00    +0.000 NA
ATOM     10  O   UNL     1     120.851 162.250 178.063  0.00  0.00    +0.000 OA
BRANCH   9  11
ATOM     11  C   UNL     1     120.515 162.360 179.457  0.00  0.00    +0.000 C 
BRANCH  11  12
ATOM     12  C   UNL     1     120.322 162.434 180.142  0.00  0.00    +0.000 C 
ATOM     13  C   UNL     1     120.515 161.864 180.050  0.00  0.00    +0.000 C 
ATOM     14  C   UNL     1     120.170 162.412 180.779  0.00  0.00    +0.000 C 
BRANCH  12  15
ATOM     15  C   UNL     1     120.073 163.071 180.375  0.00  0.00    +0.000 C 
ATOM     16  O   UNL     1     120.468 163.663 180.291  0.00  0.00    +0.000 OA
ATOM     17  N   UNL     1     119.426 163.109 180.693  0.00  0.00    +0.000 NA
ENDBRANCH  12  15
ENDBRANCH  11  12
ENDBRANCH   9  11
ENDBRANCH   7   8
BRANCH   7  18
ATOM     18  C   UNL     1     119.463 161.588 177.478  0.00  0.00    +0.000 C 
ATOM     19  C   UNL     1     118.815 161.379 177.507  0.00  0.00    +0.000 C 
ATOM     20  C   UNL     1     119.562 161.999 177.006  0.00  0.00    +0.000 C 
ENDBRANCH   7  18
ENDBRANCH   6   7
ENDBRANCH   4   6
ENDBRANCH   2   4
ENDBRANCH   1   2
BRANCH   1  21
ATOM     21  C   UNL     1     121.590 158.784 177.555  0.00  0.00    +0.000 C 
BRANCH  21  22
ATOM     22  C   UNL     1     121.590 158.345 176.989  0.00  0.00    +0.000 C 
ATOM     23  C   UNL     1     121.229 157.596 176.842  0.00  0.00    +0.000 C 
ATOM     24  C   UNL     1     121.887 158.356 176.331  0.00  0.00    +0.000 C 
ENDBRANCH  21  22
BRANCH  21  25
ATOM     25  C   UNL     1     121.758 158.538 178.205  0.00  0.00    +0.000 C 
BRANCH  25  29
ATOM     26  C   UNL     1     123.192 158.821 179.424  0.00  0.00    +0.000 A 
ATOM     27  C   UNL     1     123.765 158.824 178.967  0.00  0.00    +0.000 A 
ATOM     28  C   UNL     1     122.529 158.726 179.164  0.00  0.00    +0.000 A 
ATOM     29  C   UNL     1     122.427 158.633 178.460  0.00  0.00    +0.000 A 
ATOM     30  C   UNL     1     123.655 158.731 178.265  0.00  0.00    +0.000 A 
ATOM     31  C   UNL     1     122.992 158.635 178.005  0.00  0.00    +0.000 A 
BRANCH  27  32
ATOM     32  O   UNL     1     124.429 158.920 179.228  0.00  0.00    +0.000 OA
ATOM     33  C   UNL     1     125.000 158.873 178.790  0.00  0.00    +0.000 C 
ENDBRANCH  27  32
BRANCH  26  34
ATOM     34  O   UNL     1     123.303 158.915 180.127  0.00  0.00    +0.000 OA
BRANCH  34  35
ATOM     35  C   UNL     1     122.769 159.149 180.554  0.00  0.00    +0.000 C 
BRANCH  35  36
ATOM     36  C   UNL     1     122.848 159.140 181.270  0.00  0.00    +0.000 C 
BRANCH  36  37
ATOM     37  C   UNL     1     122.449 159.572 181.686  0.00  0.00    +0.000 C 
BRANCH  37  38
ATOM     38  O   UNL     1     122.448 159.489 182.401  0.00  0.00    +0.000 OA
ATOM     39  C   UNL     1     122.222 160.022 182.816  0.00  0.00    +0.000 C 
ENDBRANCH  37  38
ENDBRANCH  36  37
ENDBRANCH  35  36
ENDBRANCH  34  35
ENDBRANCH  26  34
ENDBRANCH  25  29
ENDBRANCH  21  25
ENDBRANCH   1  21
TORSDOF 19
ENDMDL
MODEL 17
REMARK VINA RESULT:      -6.2      1.824      3.765
REMARK  Name = 
REMARK  19 active torsions:
REMARK  status: ('A' for Active; 'I' for Inactive)
REMARK    1  A    between atoms: C_1  and  C_3
REMARK    2  A    between atoms: C_1  and  C_10
REMARK    3  A    between atoms: C_2  and  C_4
REMARK    4  A    between atoms: C_4  and  C_5
REMARK    5  A    between atoms: C_4  and  C_21
REMARK    6  A    between atoms: C_5  and  C_11
REMARK    7  A    between atoms: N_6  and  C_10
REMARK    8  A    between atoms: C_7  and  C_8
REMARK    9  A    between atoms: C_7  and  C_13
REMARK   10  A    between atoms: C_7  and  C_22
REMARK   11  A    between atoms: C_8  and  C_12
REMARK   12  A    between atoms: C_9  and  O_25
REMARK   13  A    between atoms: C_11  and  C_12
REMARK   14  A    between atoms: C_13  and  C_16
REMARK   15  A    between atoms: C_14  and  O_27
REMARK   16  A    between atoms: O_25  and  C_32
REMARK   17  A    between atoms: C_30  and  C_32
REMARK   18  A    between atoms: C_30  and  C_33
REMARK   19  A    between atoms: O_31  and  C_33
REMARK                            x       y       z     vdW  Elec       q    Type
REMARK                         _______ _______ _______ _____ _____    ______ ____
ROOT
ATOM      1  C   UNL     1     148.797 104.981 192.394  0.00  0.00    +0.000 C 
ENDROOT
BRANCH   1   2
ATOM      2  C   UNL     1     148.264 104.570 192.144  0.00  0.00    +0.000 C 
ATOM      3  N   UNL     1     147.603 104.843 192.085  0.00  0.00    +0.000 NA
BRANCH   2   4
ATOM      4  C   UNL     1     148.401 103.893 191.958  0.00  0.00    +0.000 C 
ATOM      5  O   UNL     1     148.920 103.743 191.480  0.00  0.00    +0.000 OA
BRANCH   4   6
ATOM      6  C   UNL     1     148.015 103.358 192.252  0.00  0.00    +0.000 C 
BRANCH   6   7
ATOM      7  C   UNL     1     148.227 102.676 192.164  0.00  0.00    +0.000 C 
BRANCH   7   8
ATOM      8  C   UNL     1     148.567 102.344 192.697  0.00  0.00    +0.000 C 
ATOM      9  N   UNL     1     148.227 102.240 193.326  0.00  0.00    +0.000 NA
ATOM     10  O   UNL     1     149.242 102.116 192.611  0.00  0.00    +0.000 OA
BRANCH   9  11
ATOM     11  C   UNL     1     148.568 101.906 193.864  0.00  0.00    +0.000 C 
BRANCH  11  12
ATOM     12  C   UNL     1     148.239 101.831 194.495  0.00  0.00    +0.000 C 
ATOM     13  C   UNL     1     148.021 101.416 194.106  0.00  0.00    +0.000 C 
ATOM     14  C   UNL     1     147.890 101.693 195.032  0.00  0.00    +0.000 C 
BRANCH  12  15
ATOM     15  C   UNL     1     148.413 102.270 195.041  0.00  0.00    +0.000 C 
ATOM     16  O   UNL     1     147.913 102.686 195.342  0.00  0.00    +0.000 OA
ATOM     17  N   UNL     1     149.093 102.288 195.285  0.00  0.00    +0.000 NA
ENDBRANCH  12  15
ENDBRANCH  11  12
ENDBRANCH   9  11
ENDBRANCH   7   8
BRANCH   7  18
ATOM     18  C   UNL     1     148.092 102.340 191.541  0.00  0.00    +0.000 C 
ATOM     19  C   UNL     1     147.468 102.200 191.305  0.00  0.00    +0.000 C 
ATOM     20  C   UNL     1     148.547 102.140 191.149  0.00  0.00    +0.000 C 
ENDBRANCH   7  18
ENDBRANCH   6   7
ENDBRANCH   4   6
ENDBRANCH   2   4
ENDBRANCH   1   2
BRANCH   1  21
ATOM     21  C   UNL     1     148.653 105.647 192.633  0.00  0.00    +0.000 C 
BRANCH  21  22
ATOM     22  C   UNL     1     148.684 106.205 192.184  0.00  0.00    +0.000 C 
ATOM     23  C   UNL     1     148.168 106.857 192.039  0.00  0.00    +0.000 C 
ATOM     24  C   UNL     1     149.151 106.436 191.685  0.00  0.00    +0.000 C 
ENDBRANCH  21  22
BRANCH  21  25
ATOM     25  C   UNL     1     148.479 105.745 193.320  0.00  0.00    +0.000 C 
BRANCH  25  29
ATOM     26  C   UNL     1     149.345 105.952 195.002  0.00  0.00    +0.000 A 
ATOM     27  C   UNL     1     150.050 105.930 194.801  0.00  0.00    +0.000 A 
ATOM     28  C   UNL     1     148.830 105.890 194.506  0.00  0.00    +0.000 A 
ATOM     29  C   UNL     1     149.002 105.807 193.814  0.00  0.00    +0.000 A 
ATOM     30  C   UNL     1     150.214 105.847 194.107  0.00  0.00    +0.000 A 
ATOM     31  C   UNL     1     149.698 105.785 193.611  0.00  0.00    +0.000 A 
BRANCH  27  32
ATOM     32  O   UNL     1     150.566 105.992 195.298  0.00  0.00    +0.000 OA
ATOM     33  C   UNL     1     151.259 105.998 195.101  0.00  0.00    +0.000 C 
ENDBRANCH  27  32
BRANCH  26  34
ATOM     34  O   UNL     1     149.181 106.035 195.697  0.00  0.00    +0.000 OA
BRANCH  34  35
ATOM     35  C   UNL     1     148.497 105.979 195.920  0.00  0.00    +0.000 C 
BRANCH  35  36
ATOM     36  C   UNL     1     148.330 106.103 196.610  0.00  0.00    +0.000 C 
BRANCH  36  37
ATOM     37  C   UNL     1     147.684 105.917 196.868  0.00  0.00    +0.000 C 
BRANCH  37  38
ATOM     38  O   UNL     1     147.515 106.048 197.555  0.00  0.00    +0.000 OA
ATOM     39  C   UNL     1     146.885 105.834 197.809  0.00  0.00    +0.000 C 
ENDBRANCH  37  38
ENDBRANCH  36  37
ENDBRANCH  35  36
ENDBRANCH  34  35
ENDBRANCH  26  34
ENDBRANCH  25  29
ENDBRANCH  21  25
ENDBRANCH   1  21
TORSDOF 19
ENDMDL
MODEL 18
REMARK VINA RESULT:      -6.1     63.154     66.111
REMARK  Name = 
REMARK  19 active torsions:
REMARK  status: ('A' for Active; 'I' for Inactive)
REMARK    1  A    between atoms: C_1  and  C_3
REMARK    2  A    between atoms: C_1  and  C_10
REMARK    3  A    between atoms: C_2  and  C_4
REMARK    4  A    between atoms: C_4  and  C_5
REMARK    5  A    between atoms: C_4  and  C_21
REMARK    6  A    between atoms: C_5  and  C_11
REMARK    7  A    between atoms: N_6  and  C_10
REMARK    8  A    between atoms: C_7  and  C_8
REMARK    9  A    between atoms: C_7  and  C_13
REMARK   10  A    between atoms: C_7  and  C_22
REMARK   11  A    between atoms: C_8  and  C_12
REMARK   12  A    between atoms: C_9  and  O_25
REMARK   13  A    between atoms: C_11  and  C_12
REMARK   14  A    between atoms: C_13  and  C_16
REMARK   15  A    between atoms: C_14  and  O_27
REMARK   16  A    between atoms: O_25  and  C_32
REMARK   17  A    between atoms: C_30  and  C_32
REMARK   18  A    between atoms: C_30  and  C_33
REMARK   19  A    between atoms: O_31  and  C_33
REMARK                            x       y       z     vdW  Elec       q    Type
REMARK                         _______ _______ _______ _____ _____    ______ ____
ROOT
ATOM      1  C   UNL     1     149.900 132.006 133.038  0.00  0.00    +0.000 C 
ENDROOT
BRANCH   1   2
ATOM      2  C   UNL     1     149.192 131.932 132.939  0.00  0.00    +0.000 C 
ATOM      3  N   UNL     1     148.761 132.498 133.027  0.00  0.00    +0.000 NA
BRANCH   2   4
ATOM      4  C   UNL     1     148.929 131.293 132.754  0.00  0.00    +0.000 C 
ATOM      5  O   UNL     1     149.371 130.759 132.557  0.00  0.00    +0.000 OA
BRANCH   4   6
ATOM      6  C   UNL     1     148.215 131.185 132.765  0.00  0.00    +0.000 C 
BRANCH   6   7
ATOM      7  C   UNL     1     147.947 130.548 132.568  0.00  0.00    +0.000 C 
BRANCH   7   8
ATOM      8  C   UNL     1     147.620 130.487 131.935  0.00  0.00    +0.000 C 
ATOM      9  N   UNL     1     146.949 130.741 131.857  0.00  0.00    +0.000 NA
ATOM     10  O   UNL     1     147.954 130.176 131.382  0.00  0.00    +0.000 OA
BRANCH   9  11
ATOM     11  C   UNL     1     146.617 130.680 131.222  0.00  0.00    +0.000 C 
BRANCH  11  12
ATOM     12  C   UNL     1     145.953 130.934 131.147  0.00  0.00    +0.000 C 
ATOM     13  C   UNL     1     146.341 131.402 131.186  0.00  0.00    +0.000 C 
ATOM     14  C   UNL     1     145.383 131.252 131.083  0.00  0.00    +0.000 C 
BRANCH  12  15
ATOM     15  C   UNL     1     145.400 130.473 131.090  0.00  0.00    +0.000 C 
ATOM     16  O   UNL     1     145.407 129.964 130.585  0.00  0.00    +0.000 OA
ATOM     17  N   UNL     1     144.840 130.525 131.543  0.00  0.00    +0.000 NA
ENDBRANCH  12  15
ENDBRANCH  11  12
ENDBRANCH   9  11
ENDBRANCH   7   8
BRANCH   7  18
ATOM     18  C   UNL     1     148.014 129.982 133.010  0.00  0.00    +0.000 C 
ATOM     19  C   UNL     1     148.359 129.414 132.860  0.00  0.00    +0.000 C 
ATOM     20  C   UNL     1     147.754 129.960 133.587  0.00  0.00    +0.000 C 
ENDBRANCH   7  18
ENDBRANCH   6   7
ENDBRANCH   4   6
ENDBRANCH   2   4
ENDBRANCH   1   2
BRANCH   1  21
ATOM     21  C   UNL     1     150.174 132.657 133.186  0.00  0.00    +0.000 C 
BRANCH  21  22
ATOM     22  C   UNL     1     150.377 133.092 132.653  0.00  0.00    +0.000 C 
ATOM     23  C   UNL     1     150.225 133.904 132.484  0.00  0.00    +0.000 C 
ATOM     24  C   UNL     1     150.780 133.021 132.060  0.00  0.00    +0.000 C 
ENDBRANCH  21  22
BRANCH  21  25
ATOM     25  C   UNL     1     150.242 132.865 133.868  0.00  0.00    +0.000 C 
BRANCH  25  29
ATOM     26  C   UNL     1     151.398 132.544 135.344  0.00  0.00    +0.000 A 
ATOM     27  C   UNL     1     151.969 132.229 135.009  0.00  0.00    +0.000 A 
ATOM     28  C   UNL     1     150.829 132.752 134.960  0.00  0.00    +0.000 A 
ATOM     29  C   UNL     1     150.817 132.653 134.249  0.00  0.00    +0.000 A 
ATOM     30  C   UNL     1     151.950 132.134 134.299  0.00  0.00    +0.000 A 
ATOM     31  C   UNL     1     151.380 132.342 133.914  0.00  0.00    +0.000 A 
BRANCH  27  32
ATOM     32  O   UNL     1     152.540 132.021 135.395  0.00  0.00    +0.000 OA
ATOM     33  C   UNL     1     153.090 131.683 135.074  0.00  0.00    +0.000 C 
ENDBRANCH  27  32
BRANCH  26  34
ATOM     34  O   UNL     1     151.418 132.639 136.056  0.00  0.00    +0.000 OA
BRANCH  34  35
ATOM     35  C   UNL     1     151.012 133.148 136.368  0.00  0.00    +0.000 C 
BRANCH  35  36
ATOM     36  C   UNL     1     150.981 133.196 137.086  0.00  0.00    +0.000 C 
BRANCH  36  37
ATOM     37  C   UNL     1     150.755 133.803 137.401  0.00  0.00    +0.000 C 
BRANCH  37  38
ATOM     38  O   UNL     1     150.659 133.829 138.115  0.00  0.00    +0.000 OA
ATOM     39  C   UNL     1     150.653 134.460 138.445  0.00  0.00    +0.000 C 
ENDBRANCH  37  38
ENDBRANCH  36  37
ENDBRANCH  35  36
ENDBRANCH  34  35
ENDBRANCH  26  34
ENDBRANCH  25  29
ENDBRANCH  21  25
ENDBRANCH   1  21
TORSDOF 19
ENDMDL
MODEL 19
REMARK VINA RESULT:      -6.1     66.981     69.746
REMARK  Name = 
REMARK  19 active torsions:
REMARK  status: ('A' for Active; 'I' for Inactive)
REMARK    1  A    between atoms: C_1  and  C_3
REMARK    2  A    between atoms: C_1  and  C_10
REMARK    3  A    between atoms: C_2  and  C_4
REMARK    4  A    between atoms: C_4  and  C_5
REMARK    5  A    between atoms: C_4  and  C_21
REMARK    6  A    between atoms: C_5  and  C_11
REMARK    7  A    between atoms: N_6  and  C_10
REMARK    8  A    between atoms: C_7  and  C_8
REMARK    9  A    between atoms: C_7  and  C_13
REMARK   10  A    between atoms: C_7  and  C_22
REMARK   11  A    between atoms: C_8  and  C_12
REMARK   12  A    between atoms: C_9  and  O_25
REMARK   13  A    between atoms: C_11  and  C_12
REMARK   14  A    between atoms: C_13  and  C_16
REMARK   15  A    between atoms: C_14  and  O_27
REMARK   16  A    between atoms: O_25  and  C_32
REMARK   17  A    between atoms: C_30  and  C_32
REMARK   18  A    between atoms: C_30  and  C_33
REMARK   19  A    between atoms: O_31  and  C_33
REMARK                            x       y       z     vdW  Elec       q    Type
REMARK                         _______ _______ _______ _____ _____    ______ ____
ROOT
ATOM      1  C   UNL     1     144.049 119.484 127.208  0.00  0.00    +0.000 C 
ENDROOT
BRANCH   1   2
ATOM      2  C   UNL     1     144.529 119.599 126.685  0.00  0.00    +0.000 C 
ATOM      3  N   UNL     1     145.034 119.107 126.554  0.00  0.00    +0.000 NA
BRANCH   2   4
ATOM      4  C   UNL     1     144.495 120.204 126.304  0.00  0.00    +0.000 C 
ATOM      5  O   UNL     1     144.334 120.829 126.625  0.00  0.00    +0.000 OA
BRANCH   4   6
ATOM      6  C   UNL     1     144.623 120.184 125.594  0.00  0.00    +0.000 C 
BRANCH   6   7
ATOM      7  C   UNL     1     144.504 120.770 125.194  0.00  0.00    +0.000 C 
BRANCH   7   8
ATOM      8  C   UNL     1     143.943 120.784 124.752  0.00  0.00    +0.000 C 
ATOM      9  N   UNL     1     143.969 120.412 124.133  0.00  0.00    +0.000 NA
ATOM     10  O   UNL     1     143.358 121.163 124.919  0.00  0.00    +0.000 OA
BRANCH   9  11
ATOM     11  C   UNL     1     143.406 120.424 123.686  0.00  0.00    +0.000 C 
BRANCH  11  12
ATOM     12  C   UNL     1     143.448 120.083 123.059  0.00  0.00    +0.000 C 
ATOM     13  C   UNL     1     143.574 119.691 123.508  0.00  0.00    +0.000 C 
ATOM     14  C   UNL     1     143.509 119.694 122.535  0.00  0.00    +0.000 C 
BRANCH  12  15
ATOM     15  C   UNL     1     143.319 120.444 122.447  0.00  0.00    +0.000 C 
ATOM     16  O   UNL     1     142.669 120.719 122.323  0.00  0.00    +0.000 OA
ATOM     17  N   UNL     1     143.847 120.528 121.961  0.00  0.00    +0.000 NA
ENDBRANCH  12  15
ENDBRANCH  11  12
ENDBRANCH   9  11
ENDBRANCH   7   8
BRANCH   7  18
ATOM     18  C   UNL     1     144.951 121.332 125.247  0.00  0.00    +0.000 C 
ATOM     19  C   UNL     1     144.766 121.955 125.454  0.00  0.00    +0.000 C 
ATOM     20  C   UNL     1     145.567 121.301 125.103  0.00  0.00    +0.000 C 
ENDBRANCH   7  18
ENDBRANCH   6   7
ENDBRANCH   4   6
ENDBRANCH   2   4
ENDBRANCH   1   2
BRANCH   1  21
ATOM     21  C   UNL     1     144.020 118.839 127.532  0.00  0.00    +0.000 C 
BRANCH  21  22
ATOM     22  C   UNL     1     144.472 118.686 128.067  0.00  0.00    +0.000 C 
ATOM     23  C   UNL     1     144.680 119.090 128.777  0.00  0.00    +0.000 C 
ATOM     24  C   UNL     1     144.921 118.142 128.218  0.00  0.00    +0.000 C 
ENDBRANCH  21  22
BRANCH  21  25
ATOM     25  C   UNL     1     143.539 118.356 127.314  0.00  0.00    +0.000 C 
BRANCH  25  29
ATOM     26  C   UNL     1     141.644 118.523 127.347  0.00  0.00    +0.000 A 
ATOM     27  C   UNL     1     141.510 118.460 128.065  0.00  0.00    +0.000 A 
ATOM     28  C   UNL     1     142.319 118.488 127.105  0.00  0.00    +0.000 A 
ATOM     29  C   UNL     1     142.862 118.391 127.564  0.00  0.00    +0.000 A 
ATOM     30  C   UNL     1     142.058 118.363 128.517  0.00  0.00    +0.000 A 
ATOM     31  C   UNL     1     142.734 118.328 128.275  0.00  0.00    +0.000 A 
BRANCH  27  32
ATOM     32  O   UNL     1     140.833 118.495 128.307  0.00  0.00    +0.000 OA
ATOM     33  C   UNL     1     140.699 118.448 129.014  0.00  0.00    +0.000 C 
ENDBRANCH  27  32
BRANCH  26  34
ATOM     34  O   UNL     1     141.094 118.620 126.895  0.00  0.00    +0.000 OA
BRANCH  34  35
ATOM     35  C   UNL     1     141.176 118.499 126.188  0.00  0.00    +0.000 C 
BRANCH  35  36
ATOM     36  C   UNL     1     140.670 118.713 125.723  0.00  0.00    +0.000 C 
BRANCH  36  37
ATOM     37  C   UNL     1     140.646 118.437 125.058  0.00  0.00    +0.000 C 
BRANCH  37  38
ATOM     38  O   UNL     1     140.235 118.743 124.551  0.00  0.00    +0.000 OA
ATOM     39  C   UNL     1     140.128 118.404 123.934  0.00  0.00    +0.000 C 
ENDBRANCH  37  38
ENDBRANCH  36  37
ENDBRANCH  35  36
ENDBRANCH  34  35
ENDBRANCH  26  34
ENDBRANCH  25  29
ENDBRANCH  21  25
ENDBRANCH   1  21
TORSDOF 19
ENDMDL
MODEL 20
REMARK VINA RESULT:      -6.1     26.775     28.524
REMARK  Name = 
REMARK  19 active torsions:
REMARK  status: ('A' for Active; 'I' for Inactive)
REMARK    1  A    between atoms: C_1  and  C_3
REMARK    2  A    between atoms: C_1  and  C_10
REMARK    3  A    between atoms: C_2  and  C_4
REMARK    4  A    between atoms: C_4  and  C_5
REMARK    5  A    between atoms: C_4  and  C_21
REMARK    6  A    between atoms: C_5  and  C_11
REMARK    7  A    between atoms: N_6  and  C_10
REMARK    8  A    between atoms: C_7  and  C_8
REMARK    9  A    between atoms: C_7  and  C_13
REMARK   10  A    between atoms: C_7  and  C_22
REMARK   11  A    between atoms: C_8  and  C_12
REMARK   12  A    between atoms: C_9  and  O_25
REMARK   13  A    between atoms: C_11  and  C_12
REMARK   14  A    between atoms: C_13  and  C_16
REMARK   15  A    between atoms: C_14  and  O_27
REMARK   16  A    between atoms: O_25  and  C_32
REMARK   17  A    between atoms: C_30  and  C_32
REMARK   18  A    between atoms: C_30  and  C_33
REMARK   19  A    between atoms: O_31  and  C_33
REMARK                            x       y       z     vdW  Elec       q    Type
REMARK                         _______ _______ _______ _____ _____    ______ ____
ROOT
ATOM      1  C   UNL     1     134.524 107.862 169.100  0.00  0.00    +0.000 C 
ENDROOT
BRANCH   1   2
ATOM      2  C   UNL     1     134.738 107.493 169.679  0.00  0.00    +0.000 C 
ATOM      3  N   UNL     1     135.251 107.763 170.101  0.00  0.00    +0.000 NA
BRANCH   2   4
ATOM      4  C   UNL     1     134.435 106.862 169.824  0.00  0.00    +0.000 C 
ATOM      5  O   UNL     1     134.501 106.311 169.363  0.00  0.00    +0.000 OA
BRANCH   4   6
ATOM      6  C   UNL     1     134.063 106.778 170.437  0.00  0.00    +0.000 C 
BRANCH   6   7
ATOM      7  C   UNL     1     133.700 106.168 170.552  0.00  0.00    +0.000 C 
BRANCH   7   8
ATOM      8  C   UNL     1     132.996 106.151 170.430  0.00  0.00    +0.000 C 
ATOM      9  N   UNL     1     132.556 106.560 170.831  0.00  0.00    +0.000 NA
ATOM     10  O   UNL     1     132.727 105.732 169.914  0.00  0.00    +0.000 OA
BRANCH   9  11
ATOM     11  C   UNL     1     131.847 106.545 170.710  0.00  0.00    +0.000 C 
BRANCH  11  12
ATOM     12  C   UNL     1     131.416 106.964 171.097  0.00  0.00    +0.000 C 
ATOM     13  C   UNL     1     131.625 106.514 171.450  0.00  0.00    +0.000 C 
ATOM     14  C   UNL     1     131.040 107.290 171.522  0.00  0.00    +0.000 C 
BRANCH  12  15
ATOM     15  C   UNL     1     131.105 107.537 170.786  0.00  0.00    +0.000 C 
ATOM     16  O   UNL     1     130.859 107.493 170.115  0.00  0.00    +0.000 OA
ATOM     17  N   UNL     1     131.043 108.156 171.154  0.00  0.00    +0.000 NA
ENDBRANCH  12  15
ENDBRANCH  11  12
ENDBRANCH   9  11
ENDBRANCH   7   8
BRANCH   7  18
ATOM     18  C   UNL     1     134.052 105.585 170.790  0.00  0.00    +0.000 C 
ATOM     19  C   UNL     1     134.091 104.994 170.451  0.00  0.00    +0.000 C 
ATOM     20  C   UNL     1     134.361 105.567 171.342  0.00  0.00    +0.000 C 
ENDBRANCH   7  18
ENDBRANCH   6   7
ENDBRANCH   4   6
ENDBRANCH   2   4
ENDBRANCH   1   2
BRANCH   1  21
ATOM     21  C   UNL     1     134.827 108.500 168.951  0.00  0.00    +0.000 C 
BRANCH  21  22
ATOM     22  C   UNL     1     135.423 108.531 168.553  0.00  0.00    +0.000 C 
ATOM     23  C   UNL     1     135.616 108.247 167.783  0.00  0.00    +0.000 C 
ATOM     24  C   UNL     1     136.084 108.807 168.642  0.00  0.00    +0.000 C 
ENDBRANCH  21  22
BRANCH  21  25
ATOM     25  C   UNL     1     134.528 109.100 169.201  0.00  0.00    +0.000 C 
BRANCH  25  29
ATOM     26  C   UNL     1     132.958 110.125 168.879  0.00  0.00    +0.000 A 
ATOM     27  C   UNL     1     132.809 109.939 168.186  0.00  0.00    +0.000 A 
ATOM     28  C   UNL     1     133.529 109.843 169.210  0.00  0.00    +0.000 A 
ATOM     29  C   UNL     1     133.955 109.380 168.863  0.00  0.00    +0.000 A 
ATOM     30  C   UNL     1     133.239 109.476 167.847  0.00  0.00    +0.000 A 
ATOM     31  C   UNL     1     133.811 109.194 168.177  0.00  0.00    +0.000 A 
BRANCH  27  32
ATOM     32  O   UNL     1     132.236 110.222 167.855  0.00  0.00    +0.000 OA
ATOM     33  C   UNL     1     132.066 110.016 167.186  0.00  0.00    +0.000 C 
ENDBRANCH  27  32
BRANCH  26  34
ATOM     34  O   UNL     1     132.526 110.589 169.218  0.00  0.00    +0.000 OA
BRANCH  34  35
ATOM     35  C   UNL     1     132.751 110.927 169.816  0.00  0.00    +0.000 C 
BRANCH  35  36
ATOM     36  C   UNL     1     132.290 111.322 170.203  0.00  0.00    +0.000 C 
BRANCH  36  37
ATOM     37  C   UNL     1     132.532 111.834 170.648  0.00  0.00    +0.000 C 
BRANCH  37  38
ATOM     38  O   UNL     1     132.094 112.130 171.136  0.00  0.00    +0.000 OA
ATOM     39  C   UNL     1     132.208 112.799 171.352  0.00  0.00    +0.000 C 
ENDBRANCH  37  38
ENDBRANCH  36  37
ENDBRANCH  35  36
ENDBRANCH  34  35
ENDBRANCH  26  34
ENDBRANCH  25  29
ENDBRANCH  21  25
ENDBRANCH   1  21
TORSDOF 19
ENDMDL
