MODEL 1
REMARK VINA RESULT:     -12.5      0.000      0.000
REMARK  Name = 
REMARK  0 active torsions:
REMARK  status: ('A' for Active; 'I' for Inactive)
REMARK                            x       y       z     vdW  Elec       q    Type
REMARK                         _______ _______ _______ _____ _____    ______ ____
ROOT
ATOM      1  C   UNL     1     134.441 149.828  90.665  0.00  0.00    +0.000 C 
ATOM      2  C   UNL     1     132.696 148.541  88.198  0.00  0.00    +0.000 C 
ATOM      3  C   UNL     1     134.460 150.942  90.782  0.00  0.00    +0.000 C 
ATOM      4  C   UNL     1     131.958 148.349  87.186  0.00  0.00    +0.000 C 
ATOM      5  C   UNL     1     133.303 150.028  89.142  0.00  0.00    +0.000 C 
ATOM      6  C   UNL     1     133.857 149.384  89.838  0.00  0.00    +0.000 C 
ATOM      7  C   UNL     1     132.726 149.599  88.327  0.00  0.00    +0.000 C 
ATOM      8  C   UNL     1     133.344 151.172  89.293  0.00  0.00    +0.000 C 
ATOM      9  O   UNL     1     132.161 147.084  87.356  0.00  0.00    +0.000 OA
ATOM     10  C   UNL     1     133.909 151.615  90.093  0.00  0.00    +0.000 C 
ATOM     11  C   UNL     1     135.047 151.386  91.613  0.00  0.00    +0.000 C 
ATOM     12  C   UNL     1     133.249 147.872  88.892  0.00  0.00    +0.000 C 
ATOM     13  C   UNL     1     131.570 146.587  86.516  0.00  0.00    +0.000 C 
ATOM     14  C   UNL     1     133.811 148.295  89.687  0.00  0.00    +0.000 C 
ATOM     15  C   UNL     1     134.983 149.165  91.342  0.00  0.00    +0.000 C 
ATOM     16  C   UNL     1     132.114 150.095  87.540  0.00  0.00    +0.000 C 
ATOM     17  C   UNL     1     131.609 149.372  86.798  0.00  0.00    +0.000 C 
ATOM     18  C   UNL     1     135.612 150.728  92.322  0.00  0.00    +0.000 C 
ATOM     19  C   UNL     1     131.113 148.258  86.035  0.00  0.00    +0.000 C 
ATOM     20  O   UNL     1     131.555 145.646  86.417  0.00  0.00    +0.000 OA
ATOM     21  O   UNL     1     136.193 151.160  93.144  0.00  0.00    +0.000 OA
ATOM     22  C   UNL     1     131.023 147.334  85.837  0.00  0.00    +0.000 C 
ATOM     23  C   UNL     1     135.578 149.587  92.181  0.00  0.00    +0.000 C 
ATOM     24  C   UNL     1     134.422 148.697  90.546  0.00  0.00    +0.000 C 
ATOM     25  C   UNL     1     132.684 147.388  88.088  0.00  0.00    +0.000 C 
ENDROOT
TORSDOF 0
ENDMDL
MODEL 2
REMARK VINA RESULT:     -12.4      1.346      2.556
REMARK  Name = 
REMARK  0 active torsions:
REMARK  status: ('A' for Active; 'I' for Inactive)
REMARK                            x       y       z     vdW  Elec       q    Type
REMARK                         _______ _______ _______ _____ _____    ______ ____
ROOT
ATOM      1  C   UNL     1     133.318 151.099  89.235  0.00  0.00    +0.000 C 
ATOM      2  C   UNL     1     132.170 148.541  87.525  0.00  0.00    +0.000 C 
ATOM      3  C   UNL     1     133.790 150.906  90.234  0.00  0.00    +0.000 C 
ATOM      4  C   UNL     1     131.831 147.391  87.115  0.00  0.00    +0.000 C 
ATOM      5  C   UNL     1     133.003 149.222  89.045  0.00  0.00    +0.000 C 
ATOM      6  C   UNL     1     132.928 150.245  88.651  0.00  0.00    +0.000 C 
ATOM      7  C   UNL     1     132.622 148.378  88.476  0.00  0.00    +0.000 C 
ATOM      8  C   UNL     1     133.495 149.061  90.077  0.00  0.00    +0.000 C 
ATOM      9  O   UNL     1     131.374 147.971  86.054  0.00  0.00    +0.000 OA
ATOM     10  C   UNL     1     133.878 149.882  90.654  0.00  0.00    +0.000 C 
ATOM     11  C   UNL     1     134.181 151.764  90.819  0.00  0.00    +0.000 C 
ATOM     12  C   UNL     1     132.084 149.568  87.108  0.00  0.00    +0.000 C 
ATOM     13  C   UNL     1     130.960 147.118  85.420  0.00  0.00    +0.000 C 
ATOM     14  C   UNL     1     132.458 150.390  87.667  0.00  0.00    +0.000 C 
ATOM     15  C   UNL     1     133.231 152.105  88.821  0.00  0.00    +0.000 C 
ATOM     16  C   UNL     1     132.614 147.292  88.719  0.00  0.00    +0.000 C 
ATOM     17  C   UNL     1     132.136 146.623  87.913  0.00  0.00    +0.000 C 
ATOM     18  C   UNL     1     134.104 152.805  90.416  0.00  0.00    +0.000 C 
ATOM     19  C   UNL     1     131.497 146.046  86.760  0.00  0.00    +0.000 C 
ATOM     20  O   UNL     1     130.562 147.281  84.578  0.00  0.00    +0.000 OA
ATOM     21  O   UNL     1     134.488 153.657  90.989  0.00  0.00    +0.000 OA
ATOM     22  C   UNL     1     131.080 146.085  85.908  0.00  0.00    +0.000 C 
ATOM     23  C   UNL     1     133.616 152.979  89.389  0.00  0.00    +0.000 C 
ATOM     24  C   UNL     1     132.839 151.295  88.223  0.00  0.00    +0.000 C 
ATOM     25  C   UNL     1     131.684 148.754  86.494  0.00  0.00    +0.000 C 
ENDROOT
TORSDOF 0
ENDMDL
MODEL 3
REMARK VINA RESULT:     -12.4      1.625      2.344
REMARK  Name = 
REMARK  0 active torsions:
REMARK  status: ('A' for Active; 'I' for Inactive)
REMARK                            x       y       z     vdW  Elec       q    Type
REMARK                         _______ _______ _______ _____ _____    ______ ____
ROOT
ATOM      1  C   UNL     1     133.951 151.839  90.117  0.00  0.00    +0.000 C 
ATOM      2  C   UNL     1     132.867 148.901  89.128  0.00  0.00    +0.000 C 
ATOM      3  C   UNL     1     133.759 152.728  89.461  0.00  0.00    +0.000 C 
ATOM      4  C   UNL     1     132.344 147.934  88.498  0.00  0.00    +0.000 C 
ATOM      5  C   UNL     1     133.052 150.732  88.843  0.00  0.00    +0.000 C 
ATOM      6  C   UNL     1     133.590 150.846  89.794  0.00  0.00    +0.000 C 
ATOM      7  C   UNL     1     132.694 149.758  88.518  0.00  0.00    +0.000 C 
ATOM      8  C   UNL     1     132.872 151.670  88.193  0.00  0.00    +0.000 C 
ATOM      9  O   UNL     1     132.731 147.173  89.468  0.00  0.00    +0.000 OA
ATOM     10  C   UNL     1     133.218 152.641  88.497  0.00  0.00    +0.000 C 
ATOM     11  C   UNL     1     134.122 153.725  89.787  0.00  0.00    +0.000 C 
ATOM     12  C   UNL     1     133.410 148.994  90.093  0.00  0.00    +0.000 C 
ATOM     13  C   UNL     1     132.376 146.131  89.171  0.00  0.00    +0.000 C 
ATOM     14  C   UNL     1     133.757 149.946  90.406  0.00  0.00    +0.000 C 
ATOM     15  C   UNL     1     134.483 151.923  91.066  0.00  0.00    +0.000 C 
ATOM     16  C   UNL     1     132.139 149.466  87.600  0.00  0.00    +0.000 C 
ATOM     17  C   UNL     1     131.890 148.343  87.525  0.00  0.00    +0.000 C 
ATOM     18  C   UNL     1     134.671 153.838  90.757  0.00  0.00    +0.000 C 
ATOM     19  C   UNL     1     131.720 146.925  87.697  0.00  0.00    +0.000 C 
ATOM     20  O   UNL     1     132.538 145.381  89.724  0.00  0.00    +0.000 OA
ATOM     21  O   UNL     1     135.032 154.820  91.084  0.00  0.00    +0.000 OA
ATOM     22  C   UNL     1     131.823 146.105  88.165  0.00  0.00    +0.000 C 
ATOM     23  C   UNL     1     134.856 152.912  91.413  0.00  0.00    +0.000 C 
ATOM     24  C   UNL     1     134.146 150.937  90.782  0.00  0.00    +0.000 C 
ATOM     25  C   UNL     1     133.071 147.989  89.814  0.00  0.00    +0.000 C 
ENDROOT
TORSDOF 0
ENDMDL
MODEL 4
REMARK VINA RESULT:     -12.2     91.304     92.073
REMARK  Name = 
REMARK  0 active torsions:
REMARK  status: ('A' for Active; 'I' for Inactive)
REMARK                            x       y       z     vdW  Elec       q    Type
REMARK                         _______ _______ _______ _____ _____    ______ ____
ROOT
ATOM      1  C   UNL     1     145.264 130.930 178.758  0.00  0.00    +0.000 C 
ATOM      2  C   UNL     1     145.586 127.816 177.764  0.00  0.00    +0.000 C 
ATOM      3  C   UNL     1     144.304 131.466 178.536  0.00  0.00    +0.000 C 
ATOM      4  C   UNL     1     145.417 126.662 177.269  0.00  0.00    +0.000 C 
ATOM      5  C   UNL     1     144.572 129.373 177.890  0.00  0.00    +0.000 C 
ATOM      6  C   UNL     1     145.383 129.882 178.428  0.00  0.00    +0.000 C 
ATOM      7  C   UNL     1     144.681 128.343 177.562  0.00  0.00    +0.000 C 
ATOM      8  C   UNL     1     143.597 129.956 177.678  0.00  0.00    +0.000 C 
ATOM      9  O   UNL     1     146.608 126.378 177.684  0.00  0.00    +0.000 OA
ATOM     10  C   UNL     1     143.469 130.976 177.994  0.00  0.00    +0.000 C 
ATOM     11  C   UNL     1     144.187 132.518 178.868  0.00  0.00    +0.000 C 
ATOM     12  C   UNL     1     146.419 128.312 178.307  0.00  0.00    +0.000 C 
ATOM     13  C   UNL     1     146.771 125.296 177.361  0.00  0.00    +0.000 C 
ATOM     14  C   UNL     1     146.308 129.319 178.625  0.00  0.00    +0.000 C 
ATOM     15  C   UNL     1     146.086 131.411 179.291  0.00  0.00    +0.000 C 
ATOM     16  C   UNL     1     143.973 127.684 177.013  0.00  0.00    +0.000 C 
ATOM     17  C   UNL     1     144.370 126.623 176.800  0.00  0.00    +0.000 C 
ATOM     18  C   UNL     1     145.015 133.034 179.417  0.00  0.00    +0.000 C 
ATOM     19  C   UNL     1     145.111 125.397 176.675  0.00  0.00    +0.000 C 
ATOM     20  O   UNL     1     147.580 124.844 177.549  0.00  0.00    +0.000 OA
ATOM     21  O   UNL     1     144.905 134.073 179.747  0.00  0.00    +0.000 OA
ATOM     22  C   UNL     1     145.872 124.845 176.806  0.00  0.00    +0.000 C 
ATOM     23  C   UNL     1     145.990 132.465 179.633  0.00  0.00    +0.000 C 
ATOM     24  C   UNL     1     146.237 130.387 178.984  0.00  0.00    +0.000 C 
ATOM     25  C   UNL     1     146.582 127.273 177.999  0.00  0.00    +0.000 C 
ENDROOT
TORSDOF 0
ENDMDL
MODEL 5
REMARK VINA RESULT:     -12.2     96.767     97.479
REMARK  Name = 
REMARK  0 active torsions:
REMARK  status: ('A' for Active; 'I' for Inactive)
REMARK                            x       y       z     vdW  Elec       q    Type
REMARK                         _______ _______ _______ _____ _____    ______ ____
ROOT
ATOM      1  C   UNL     1     125.766 154.883 185.922  0.00  0.00    +0.000 C 
ATOM      2  C   UNL     1     125.925 158.159 185.745  0.00  0.00    +0.000 C 
ATOM      3  C   UNL     1     126.525 154.344 186.546  0.00  0.00    +0.000 C 
ATOM      4  C   UNL     1     126.235 159.381 185.869  0.00  0.00    +0.000 C 
ATOM      5  C   UNL     1     126.588 156.543 186.394  0.00  0.00    +0.000 C 
ATOM      6  C   UNL     1     125.810 155.985 185.856  0.00  0.00    +0.000 C 
ATOM      7  C   UNL     1     126.639 157.628 186.333  0.00  0.00    +0.000 C 
ATOM      8  C   UNL     1     127.354 155.955 187.026  0.00  0.00    +0.000 C 
ATOM      9  O   UNL     1     125.238 159.648 185.090  0.00  0.00    +0.000 OA
ATOM     10  C   UNL     1     127.322 154.883 187.099  0.00  0.00    +0.000 C 
ATOM     11  C   UNL     1     126.480 153.237 186.612  0.00  0.00    +0.000 C 
ATOM     12  C   UNL     1     125.129 157.613 185.193  0.00  0.00    +0.000 C 
ATOM     13  C   UNL     1     125.249 160.785 184.995  0.00  0.00    +0.000 C 
ATOM     14  C   UNL     1     125.084 156.554 185.255  0.00  0.00    +0.000 C 
ATOM     15  C   UNL     1     124.982 154.353 185.378  0.00  0.00    +0.000 C 
ATOM     16  C   UNL     1     127.349 158.342 186.805  0.00  0.00    +0.000 C 
ATOM     17  C   UNL     1     127.153 159.450 186.556  0.00  0.00    +0.000 C 
ATOM     18  C   UNL     1     125.685 152.670 186.063  0.00  0.00    +0.000 C 
ATOM     19  C   UNL     1     126.680 160.724 186.083  0.00  0.00    +0.000 C 
ATOM     20  O   UNL     1     124.608 161.240 184.469  0.00  0.00    +0.000 OA
ATOM     21  O   UNL     1     125.634 151.577 186.124  0.00  0.00    +0.000 OA
ATOM     22  C   UNL     1     126.095 161.286 185.590  0.00  0.00    +0.000 C 
ATOM     23  C   UNL     1     124.916 153.245 185.429  0.00  0.00    +0.000 C 
ATOM     24  C   UNL     1     124.995 155.430 185.290  0.00  0.00    +0.000 C 
ATOM     25  C   UNL     1     125.134 158.705 185.097  0.00  0.00    +0.000 C 
ENDROOT
TORSDOF 0
ENDMDL
MODEL 6
REMARK VINA RESULT:     -11.8    113.148    115.141
REMARK  Name = 
REMARK  0 active torsions:
REMARK  status: ('A' for Active; 'I' for Inactive)
REMARK                            x       y       z     vdW  Elec       q    Type
REMARK                         _______ _______ _______ _____ _____    ______ ____
ROOT
ATOM      1  C   UNL     1     145.558 101.130 193.291  0.00  0.00    +0.000 C 
ATOM      2  C   UNL     1     146.647 104.192 193.770  0.00  0.00    +0.000 C 
ATOM      3  C   UNL     1     145.395 100.475 194.185  0.00  0.00    +0.000 C 
ATOM      4  C   UNL     1     147.058 105.286 194.259  0.00  0.00    +0.000 C 
ATOM      5  C   UNL     1     146.125 102.539 194.452  0.00  0.00    +0.000 C 
ATOM      6  C   UNL     1     145.925 102.162 193.441  0.00  0.00    +0.000 C 
ATOM      7  C   UNL     1     146.485 103.553 194.608  0.00  0.00    +0.000 C 
ATOM      8  C   UNL     1     145.945 101.836 195.351  0.00  0.00    +0.000 C 
ATOM      9  O   UNL     1     147.127 105.730 193.047  0.00  0.00    +0.000 OA
ATOM     10  C   UNL     1     145.589 100.831 195.218  0.00  0.00    +0.000 C 
ATOM     11  C   UNL     1     145.027  99.439 194.033  0.00  0.00    +0.000 C 
ATOM     12  C   UNL     1     146.450 103.830 192.737  0.00  0.00    +0.000 C 
ATOM     13  C   UNL     1     147.504 106.801 193.158  0.00  0.00    +0.000 C 
ATOM     14  C   UNL     1     146.099 102.839 192.590  0.00  0.00    +0.000 C 
ATOM     15  C   UNL     1     145.367 100.781 192.275  0.00  0.00    +0.000 C 
ATOM     16  C   UNL     1     146.736 104.091 195.549  0.00  0.00    +0.000 C 
ATOM     17  C   UNL     1     147.099 105.174 195.401  0.00  0.00    +0.000 C 
ATOM     18  C   UNL     1     144.823  99.057 193.001  0.00  0.00    +0.000 C 
ATOM     19  C   UNL     1     147.512 106.468 194.926  0.00  0.00    +0.000 C 
ATOM     20  O   UNL     1     147.642 107.354 192.403  0.00  0.00    +0.000 OA
ATOM     21  O   UNL     1     144.460  98.035 192.844  0.00  0.00    +0.000 OA
ATOM     22  C   UNL     1     147.687 107.111 194.249  0.00  0.00    +0.000 C 
ATOM     23  C   UNL     1     144.999  99.747 192.098  0.00  0.00    +0.000 C 
ATOM     24  C   UNL     1     145.724 101.795 192.383  0.00  0.00    +0.000 C 
ATOM     25  C   UNL     1     146.812 104.859 192.837  0.00  0.00    +0.000 C 
ENDROOT
TORSDOF 0
ENDMDL
MODEL 7
REMARK VINA RESULT:     -11.8      5.022      7.593
REMARK  Name = 
REMARK  0 active torsions:
REMARK  status: ('A' for Active; 'I' for Inactive)
REMARK                            x       y       z     vdW  Elec       q    Type
REMARK                         _______ _______ _______ _____ _____    ______ ____
ROOT
ATOM      1  C   UNL     1     135.022 154.948  85.119  0.00  0.00    +0.000 C 
ATOM      2  C   UNL     1     134.648 153.687  88.128  0.00  0.00    +0.000 C 
ATOM      3  C   UNL     1     134.388 154.544  84.287  0.00  0.00    +0.000 C 
ATOM      4  C   UNL     1     134.287 153.021  89.144  0.00  0.00    +0.000 C 
ATOM      5  C   UNL     1     134.176 153.732  86.327  0.00  0.00    +0.000 C 
ATOM      6  C   UNL     1     134.904 154.531  86.136  0.00  0.00    +0.000 C 
ATOM      7  C   UNL     1     134.054 153.316  87.324  0.00  0.00    +0.000 C 
ATOM      8  C   UNL     1     133.539 153.340  85.447  0.00  0.00    +0.000 C 
ATOM      9  O   UNL     1     135.150 153.704  89.822  0.00  0.00    +0.000 OA
ATOM     10  C   UNL     1     133.645 153.737  84.454  0.00  0.00    +0.000 C 
ATOM     11  C   UNL     1     134.507 154.964  83.267  0.00  0.00    +0.000 C 
ATOM     12  C   UNL     1     135.391 154.496  87.956  0.00  0.00    +0.000 C 
ATOM     13  C   UNL     1     135.060 153.301  90.885  0.00  0.00    +0.000 C 
ATOM     14  C   UNL     1     135.507 154.898  86.981  0.00  0.00    +0.000 C 
ATOM     15  C   UNL     1     135.754 155.741  84.956  0.00  0.00    +0.000 C 
ATOM     16  C   UNL     1     133.375 152.516  87.692  0.00  0.00    +0.000 C 
ATOM     17  C   UNL     1     133.470 152.284  88.817  0.00  0.00    +0.000 C 
ATOM     18  C   UNL     1     135.251 155.779  83.074  0.00  0.00    +0.000 C 
ATOM     19  C   UNL     1     133.797 152.209  90.216  0.00  0.00    +0.000 C 
ATOM     20  O   UNL     1     135.595 153.642  91.586  0.00  0.00    +0.000 OA
ATOM     21  O   UNL     1     135.374 156.198  82.069  0.00  0.00    +0.000 OA
ATOM     22  C   UNL     1     134.275 152.469  90.994  0.00  0.00    +0.000 C 
ATOM     23  C   UNL     1     135.890 156.177  83.943  0.00  0.00    +0.000 C 
ATOM     24  C   UNL     1     135.666 155.358  85.962  0.00  0.00    +0.000 C 
ATOM     25  C   UNL     1     135.310 154.113  88.980  0.00  0.00    +0.000 C 
ENDROOT
TORSDOF 0
ENDMDL
MODEL 8
REMARK VINA RESULT:     -11.7     18.844     19.166
REMARK  Name = 
REMARK  0 active torsions:
REMARK  status: ('A' for Active; 'I' for Inactive)
REMARK                            x       y       z     vdW  Elec       q    Type
REMARK                         _______ _______ _______ _____ _____    ______ ____
ROOT
ATOM      1  C   UNL     1     115.447 147.757  99.427  0.00  0.00    +0.000 C 
ATOM      2  C   UNL     1     117.972 146.655  97.639  0.00  0.00    +0.000 C 
ATOM      3  C   UNL     1     115.335 148.863  99.568  0.00  0.00    +0.000 C 
ATOM      4  C   UNL     1     119.011 146.539  96.923  0.00  0.00    +0.000 C 
ATOM      5  C   UNL     1     117.014 148.072  98.377  0.00  0.00    +0.000 C 
ATOM      6  C   UNL     1     116.293 147.375  98.827  0.00  0.00    +0.000 C 
ATOM      7  C   UNL     1     117.848 147.704  97.785  0.00  0.00    +0.000 C 
ATOM      8  C   UNL     1     116.867 149.205  98.543  0.00  0.00    +0.000 C 
ATOM      9  O   UNL     1     118.828 145.260  96.973  0.00  0.00    +0.000 OA
ATOM     10  C   UNL     1     116.048 149.588  99.125  0.00  0.00    +0.000 C 
ATOM     11  C   UNL     1     114.484 149.245 100.171  0.00  0.00    +0.000 C 
ATOM     12  C   UNL     1     117.254 145.933  98.086  0.00  0.00    +0.000 C 
ATOM     13  C   UNL     1     119.687 144.826  96.362  0.00  0.00    +0.000 C 
ATOM     14  C   UNL     1     116.441 146.297  98.663  0.00  0.00    +0.000 C 
ATOM     15  C   UNL     1     114.746 147.043  99.863  0.00  0.00    +0.000 C 
ATOM     16  C   UNL     1     118.660 148.258  97.264  0.00  0.00    +0.000 C 
ATOM     17  C   UNL     1     119.417 147.591  96.708  0.00  0.00    +0.000 C 
ATOM     18  C   UNL     1     113.751 148.534 100.629  0.00  0.00    +0.000 C 
ATOM     19  C   UNL     1     120.193 146.534  96.117  0.00  0.00    +0.000 C 
ATOM     20  O   UNL     1     119.781 143.892  96.242  0.00  0.00    +0.000 OA
ATOM     21  O   UNL     1     112.910 148.904 101.225  0.00  0.00    +0.000 OA
ATOM     22  C   UNL     1     120.390 145.624  95.929  0.00  0.00    +0.000 C 
ATOM     23  C   UNL     1     113.887 147.403 100.470  0.00  0.00    +0.000 C 
ATOM     24  C   UNL     1     115.561 146.635  99.283  0.00  0.00    +0.000 C 
ATOM     25  C   UNL     1     118.077 145.509  97.500  0.00  0.00    +0.000 C 
ENDROOT
TORSDOF 0
ENDMDL
MODEL 9
REMARK VINA RESULT:     -11.6    115.347    117.658
REMARK  Name = 
REMARK  0 active torsions:
REMARK  status: ('A' for Active; 'I' for Inactive)
REMARK                            x       y       z     vdW  Elec       q    Type
REMARK                         _______ _______ _______ _____ _____    ______ ____
ROOT
ATOM      1  C   UNL     1     164.397 136.335 200.782  0.00  0.00    +0.000 C 
ATOM      2  C   UNL     1     162.158 135.032 202.801  0.00  0.00    +0.000 C 
ATOM      3  C   UNL     1     164.902 137.288 201.087  0.00  0.00    +0.000 C 
ATOM      4  C   UNL     1     161.367 134.781 203.758  0.00  0.00    +0.000 C 
ATOM      5  C   UNL     1     163.391 136.371 202.408  0.00  0.00    +0.000 C 
ATOM      6  C   UNL     1     163.642 135.888 201.454  0.00  0.00    +0.000 C 
ATOM      7  C   UNL     1     162.650 135.938 203.074  0.00  0.00    +0.000 C 
ATOM      8  C   UNL     1     163.931 137.352 202.690  0.00  0.00    +0.000 C 
ATOM      9  O   UNL     1     161.009 133.725 203.103  0.00  0.00    +0.000 OA
ATOM     10  C   UNL     1     164.667 137.797 202.045  0.00  0.00    +0.000 C 
ATOM     11  C   UNL     1     165.659 137.737 200.411  0.00  0.00    +0.000 C 
ATOM     12  C   UNL     1     162.398 134.526 201.840  0.00  0.00    +0.000 C 
ATOM     13  C   UNL     1     160.224 133.231 203.768  0.00  0.00    +0.000 C 
ATOM     14  C   UNL     1     163.122 134.953 201.193  0.00  0.00    +0.000 C 
ATOM     15  C   UNL     1     164.627 135.834 199.840  0.00  0.00    +0.000 C 
ATOM     16  C   UNL     1     162.279 136.288 204.062  0.00  0.00    +0.000 C 
ATOM     17  C   UNL     1     161.479 135.612 204.542  0.00  0.00    +0.000 C 
ATOM     18  C   UNL     1     165.914 137.242 199.440  0.00  0.00    +0.000 C 
ATOM     19  C   UNL     1     160.515 134.603 204.894  0.00  0.00    +0.000 C 
ATOM     20  O   UNL     1     159.798 132.427 203.510  0.00  0.00    +0.000 OA
ATOM     21  O   UNL     1     166.661 137.679 198.768  0.00  0.00    +0.000 OA
ATOM     22  C   UNL     1     160.025 133.804 204.743  0.00  0.00    +0.000 C 
ATOM     23  C   UNL     1     165.382 136.264 199.147  0.00  0.00    +0.000 C 
ATOM     24  C   UNL     1     163.885 135.369 200.472  0.00  0.00    +0.000 C 
ATOM     25  C   UNL     1     161.643 134.046 202.474  0.00  0.00    +0.000 C 
ENDROOT
TORSDOF 0
ENDMDL
MODEL 10
REMARK VINA RESULT:     -11.6      5.721      7.668
REMARK  Name = 
REMARK  0 active torsions:
REMARK  status: ('A' for Active; 'I' for Inactive)
REMARK                            x       y       z     vdW  Elec       q    Type
REMARK                         _______ _______ _______ _____ _____    ______ ____
ROOT
ATOM      1  C   UNL     1     134.539 155.403  84.366  0.00  0.00    +0.000 C 
ATOM      2  C   UNL     1     134.196 153.581  87.077  0.00  0.00    +0.000 C 
ATOM      3  C   UNL     1     135.259 156.262  84.387  0.00  0.00    +0.000 C 
ATOM      4  C   UNL     1     134.280 153.079  88.238  0.00  0.00    +0.000 C 
ATOM      5  C   UNL     1     134.992 155.007  86.181  0.00  0.00    +0.000 C 
ATOM      6  C   UNL     1     134.416 154.783  85.273  0.00  0.00    +0.000 C 
ATOM      7  C   UNL     1     134.876 154.402  87.077  0.00  0.00    +0.000 C 
ATOM      8  C   UNL     1     135.724 155.899  86.167  0.00  0.00    +0.000 C 
ATOM      9  O   UNL     1     133.399 152.212  87.859  0.00  0.00    +0.000 OA
ATOM     10  C   UNL     1     135.853 156.509  85.291  0.00  0.00    +0.000 C 
ATOM     11  C   UNL     1     135.382 156.883  83.476  0.00  0.00    +0.000 C 
ATOM     12  C   UNL     1     133.603 153.337  86.169  0.00  0.00    +0.000 C 
ATOM     13  C   UNL     1     133.242 151.549  88.773  0.00  0.00    +0.000 C 
ATOM     14  C   UNL     1     133.720 153.931  85.296  0.00  0.00    +0.000 C 
ATOM     15  C   UNL     1     133.955 155.159  83.478  0.00  0.00    +0.000 C 
ATOM     16  C   UNL     1     135.371 154.485  88.070  0.00  0.00    +0.000 C 
ATOM     17  C   UNL     1     135.044 153.691  88.838  0.00  0.00    +0.000 C 
ATOM     18  C   UNL     1     134.794 156.654  82.551  0.00  0.00    +0.000 C 
ATOM     19  C   UNL     1     134.459 152.602  89.575  0.00  0.00    +0.000 C 
ATOM     20  O   UNL     1     132.635 150.824  88.756  0.00  0.00    +0.000 OA
ATOM     21  O   UNL     1     134.910 157.263  81.648  0.00  0.00    +0.000 OA
ATOM     22  C   UNL     1     133.884 151.854  89.676  0.00  0.00    +0.000 C 
ATOM     23  C   UNL     1     134.061 155.767  82.553  0.00  0.00    +0.000 C 
ATOM     24  C   UNL     1     133.809 154.532  84.345  0.00  0.00    +0.000 C 
ATOM     25  C   UNL     1     133.448 152.696  87.043  0.00  0.00    +0.000 C 
ENDROOT
TORSDOF 0
ENDMDL
MODEL 11
REMARK VINA RESULT:     -11.3     27.810     29.695
REMARK  Name = 
REMARK  0 active torsions:
REMARK  status: ('A' for Active; 'I' for Inactive)
REMARK                            x       y       z     vdW  Elec       q    Type
REMARK                         _______ _______ _______ _____ _____    ______ ____
ROOT
ATOM      1  C   UNL     1     162.992 143.365  91.513  0.00  0.00    +0.000 C 
ATOM      2  C   UNL     1     162.250 145.965  89.649  0.00  0.00    +0.000 C 
ATOM      3  C   UNL     1     162.189 142.612  91.723  0.00  0.00    +0.000 C 
ATOM      4  C   UNL     1     161.679 146.832  88.922  0.00  0.00    +0.000 C 
ATOM      5  C   UNL     1     161.743 144.376  90.476  0.00  0.00    +0.000 C 
ATOM      6  C   UNL     1     162.753 144.244  90.887  0.00  0.00    +0.000 C 
ATOM      7  C   UNL     1     161.500 145.238  89.860  0.00  0.00    +0.000 C 
ATOM      8  C   UNL     1     160.941 143.580  90.714  0.00  0.00    +0.000 C 
ATOM      9  O   UNL     1     162.807 147.462  88.894  0.00  0.00    +0.000 OA
ATOM     10  C   UNL     1     161.160 142.721  91.321  0.00  0.00    +0.000 C 
ATOM     11  C   UNL     1     162.430 141.729  92.352  0.00  0.00    +0.000 C 
ATOM     12  C   UNL     1     163.279 145.851  90.054  0.00  0.00    +0.000 C 
ATOM     13  C   UNL     1     162.602 148.383  88.253  0.00  0.00    +0.000 C 
ATOM     14  C   UNL     1     163.511 145.008  90.655  0.00  0.00    +0.000 C 
ATOM     15  C   UNL     1     164.004 143.258  91.907  0.00  0.00    +0.000 C 
ATOM     16  C   UNL     1     160.544 145.526  89.370  0.00  0.00    +0.000 C 
ATOM     17  C   UNL     1     160.587 146.508  88.770  0.00  0.00    +0.000 C 
ATOM     18  C   UNL     1     163.460 141.597  92.769  0.00  0.00    +0.000 C 
ATOM     19  C   UNL     1     160.928 147.741  88.111  0.00  0.00    +0.000 C 
ATOM     20  O   UNL     1     163.279 149.019  88.075  0.00  0.00    +0.000 OA
ATOM     21  O   UNL     1     163.705 140.728  93.391  0.00  0.00    +0.000 OA
ATOM     22  C   UNL     1     161.521 148.440  87.867  0.00  0.00    +0.000 C 
ATOM     23  C   UNL     1     164.268 142.383  92.540  0.00  0.00    +0.000 C 
ATOM     24  C   UNL     1     163.806 144.129  91.300  0.00  0.00    +0.000 C 
ATOM     25  C   UNL     1     163.089 146.737  89.438  0.00  0.00    +0.000 C 
ENDROOT
TORSDOF 0
ENDMDL
MODEL 12
REMARK VINA RESULT:     -11.3     45.257     46.968
REMARK  Name = 
REMARK  0 active torsions:
REMARK  status: ('A' for Active; 'I' for Inactive)
REMARK                            x       y       z     vdW  Elec       q    Type
REMARK                         _______ _______ _______ _____ _____    ______ ____
ROOT
ATOM      1  C   UNL     1     120.450 132.909 129.683  0.00  0.00    +0.000 C 
ATOM      2  C   UNL     1     117.787 131.106 130.348  0.00  0.00    +0.000 C 
ATOM      3  C   UNL     1     121.459 132.473 129.901  0.00  0.00    +0.000 C 
ATOM      4  C   UNL     1     116.975 130.199 130.701  0.00  0.00    +0.000 C 
ATOM      5  C   UNL     1     119.639 131.303 130.329  0.00  0.00    +0.000 C 
ATOM      6  C   UNL     1     119.547 132.311 129.903  0.00  0.00    +0.000 C 
ATOM      7  C   UNL     1     118.756 130.708 130.548  0.00  0.00    +0.000 C 
ATOM      8  C   UNL     1     120.694 130.886 130.541  0.00  0.00    +0.000 C 
ATOM      9  O   UNL     1     116.024 130.994 130.333  0.00  0.00    +0.000 OA
ATOM     10  C   UNL     1     121.580 131.458 130.332  0.00  0.00    +0.000 C 
ATOM     11  C   UNL     1     122.365 133.075 129.680  0.00  0.00    +0.000 C 
ATOM     12  C   UNL     1     117.672 132.124 129.916  0.00  0.00    +0.000 C 
ATOM     13  C   UNL     1     115.068 130.409 130.546  0.00  0.00    +0.000 C 
ATOM     14  C   UNL     1     118.537 132.701 129.704  0.00  0.00    +0.000 C 
ATOM     15  C   UNL     1     120.330 133.908 129.259  0.00  0.00    +0.000 C 
ATOM     16  C   UNL     1     118.665 129.685 130.975  0.00  0.00    +0.000 C 
ATOM     17  C   UNL     1     117.583 129.309 131.096  0.00  0.00    +0.000 C 
ATOM     18  C   UNL     1     122.269 134.102 129.245  0.00  0.00    +0.000 C 
ATOM     19  C   UNL     1     116.159 129.106 131.132  0.00  0.00    +0.000 C 
ATOM     20  O   UNL     1     114.216 130.778 130.361  0.00  0.00    +0.000 OA
ATOM     21  O   UNL     1     123.159 134.702 129.024  0.00  0.00    +0.000 OA
ATOM     22  C   UNL     1     115.258 129.367 130.990  0.00  0.00    +0.000 C 
ATOM     23  C   UNL     1     121.223 134.529 129.029  0.00  0.00    +0.000 C 
ATOM     24  C   UNL     1     119.426 133.352 129.461  0.00  0.00    +0.000 C 
ATOM     25  C   UNL     1     116.749 131.568 130.117  0.00  0.00    +0.000 C 
ENDROOT
TORSDOF 0
ENDMDL
MODEL 13
REMARK VINA RESULT:     -11.3     53.788     55.092
REMARK  Name = 
REMARK  0 active torsions:
REMARK  status: ('A' for Active; 'I' for Inactive)
REMARK                            x       y       z     vdW  Elec       q    Type
REMARK                         _______ _______ _______ _____ _____    ______ ____
ROOT
ATOM      1  C   UNL     1     111.583 126.669 132.717  0.00  0.00    +0.000 C 
ATOM      2  C   UNL     1     109.099 127.717 134.593  0.00  0.00    +0.000 C 
ATOM      3  C   UNL     1     112.446 127.362 132.538  0.00  0.00    +0.000 C 
ATOM      4  C   UNL     1     108.317 128.384 135.334  0.00  0.00    +0.000 C 
ATOM      5  C   UNL     1     110.753 128.017 133.790  0.00  0.00    +0.000 C 
ATOM      6  C   UNL     1     110.742 127.012 133.347  0.00  0.00    +0.000 C 
ATOM      7  C   UNL     1     109.929 128.361 134.410  0.00  0.00    +0.000 C 
ATOM      8  C   UNL     1     111.658 128.703 133.584  0.00  0.00    +0.000 C 
ATOM      9  O   UNL     1     107.530 127.359 135.321  0.00  0.00    +0.000 OA
ATOM     10  C   UNL     1     112.482 128.382 132.973  0.00  0.00    +0.000 C 
ATOM     11  C   UNL     1     113.291 127.016 131.905  0.00  0.00    +0.000 C 
ATOM     12  C   UNL     1     109.068 126.696 134.154  0.00  0.00    +0.000 C 
ATOM     13  C   UNL     1     106.642 127.674 135.964  0.00  0.00    +0.000 C 
ATOM     14  C   UNL     1     109.874 126.365 133.549  0.00  0.00    +0.000 C 
ATOM     15  C   UNL     1     111.547 125.666 132.289  0.00  0.00    +0.000 C 
ATOM     16  C   UNL     1     109.777 129.333 134.930  0.00  0.00    +0.000 C 
ATOM     17  C   UNL     1     108.793 129.412 135.523  0.00  0.00    +0.000 C 
ATOM     18  C   UNL     1     113.277 125.992 131.455  0.00  0.00    +0.000 C 
ATOM     19  C   UNL     1     107.518 129.232 136.165  0.00  0.00    +0.000 C 
ATOM     20  O   UNL     1     105.914 127.089 136.115  0.00  0.00    +0.000 OA
ATOM     21  O   UNL     1     114.108 125.644 130.829  0.00  0.00    +0.000 OA
ATOM     22  C   UNL     1     106.738 128.738 136.386  0.00  0.00    +0.000 C 
ATOM     23  C   UNL     1     112.381 125.299 131.653  0.00  0.00    +0.000 C 
ATOM     24  C   UNL     1     110.708 125.967 132.899  0.00  0.00    +0.000 C 
ATOM     25  C   UNL     1     108.212 126.993 134.771  0.00  0.00    +0.000 C 
ENDROOT
TORSDOF 0
ENDMDL
MODEL 14
REMARK VINA RESULT:     -11.2     52.185     53.538
REMARK  Name = 
REMARK  0 active torsions:
REMARK  status: ('A' for Active; 'I' for Inactive)
REMARK                            x       y       z     vdW  Elec       q    Type
REMARK                         _______ _______ _______ _____ _____    ______ ____
ROOT
ATOM      1  C   UNL     1     113.381 126.136 131.581  0.00  0.00    +0.000 C 
ATOM      2  C   UNL     1     110.716 127.398 133.028  0.00  0.00    +0.000 C 
ATOM      3  C   UNL     1     113.363 125.058 131.275  0.00  0.00    +0.000 C 
ATOM      4  C   UNL     1     109.576 127.591 133.546  0.00  0.00    +0.000 C 
ATOM      5  C   UNL     1     111.599 125.954 132.251  0.00  0.00    +0.000 C 
ATOM      6  C   UNL     1     112.489 126.571 132.068  0.00  0.00    +0.000 C 
ATOM      7  C   UNL     1     110.719 126.374 132.730  0.00  0.00    +0.000 C 
ATOM      8  C   UNL     1     111.617 124.847 131.923  0.00  0.00    +0.000 C 
ATOM      9  O   UNL     1     109.944 128.812 133.751  0.00  0.00    +0.000 OA
ATOM     10  C   UNL     1     112.478 124.412 131.448  0.00  0.00    +0.000 C 
ATOM     11  C   UNL     1     114.260 124.623 130.786  0.00  0.00    +0.000 C 
ATOM     12  C   UNL     1     111.606 128.040 132.852  0.00  0.00    +0.000 C 
ATOM     13  C   UNL     1     109.045 129.299 134.256  0.00  0.00    +0.000 C 
ATOM     14  C   UNL     1     112.464 127.625 132.384  0.00  0.00    +0.000 C 
ATOM     15  C   UNL     1     114.252 126.772 131.412  0.00  0.00    +0.000 C 
ATOM     16  C   UNL     1     109.745 125.901 132.987  0.00  0.00    +0.000 C 
ATOM     17  C   UNL     1     108.989 126.604 133.498  0.00  0.00    +0.000 C 
ATOM     18  C   UNL     1     115.166 125.254 130.601  0.00  0.00    +0.000 C 
ATOM     19  C   UNL     1     108.263 127.687 134.107  0.00  0.00    +0.000 C 
ATOM     20  O   UNL     1     109.060 130.209 134.514  0.00  0.00    +0.000 OA
ATOM     21  O   UNL     1     116.054 124.830 130.118  0.00  0.00    +0.000 OA
ATOM     22  C   UNL     1     108.161 128.582 134.407  0.00  0.00    +0.000 C 
ATOM     23  C   UNL     1     115.160 126.358 130.923  0.00  0.00    +0.000 C 
ATOM     24  C   UNL     1     113.399 127.230 131.891  0.00  0.00    +0.000 C 
ATOM     25  C   UNL     1     110.746 128.514 133.339  0.00  0.00    +0.000 C 
ENDROOT
TORSDOF 0
ENDMDL
MODEL 15
REMARK VINA RESULT:     -11.2     27.387     29.583
REMARK  Name = 
REMARK  0 active torsions:
REMARK  status: ('A' for Active; 'I' for Inactive)
REMARK                            x       y       z     vdW  Elec       q    Type
REMARK                         _______ _______ _______ _____ _____    ______ ____
ROOT
ATOM      1  C   UNL     1     162.818 143.344  91.458  0.00  0.00    +0.000 C 
ATOM      2  C   UNL     1     161.928 145.909  89.610  0.00  0.00    +0.000 C 
ATOM      3  C   UNL     1     163.890 143.259  91.774  0.00  0.00    +0.000 C 
ATOM      4  C   UNL     1     161.891 146.974  88.924  0.00  0.00    +0.000 C 
ATOM      5  C   UNL     1     163.240 144.962  90.532  0.00  0.00    +0.000 C 
ATOM      6  C   UNL     1     162.507 144.203  90.836  0.00  0.00    +0.000 C 
ATOM      7  C   UNL     1     162.943 145.810  89.921  0.00  0.00    +0.000 C 
ATOM      8  C   UNL     1     164.336 144.843  90.876  0.00  0.00    +0.000 C 
ATOM      9  O   UNL     1     160.629 146.750  88.758  0.00  0.00    +0.000 OA
ATOM     10  C   UNL     1     164.650 144.012  91.481  0.00  0.00    +0.000 C 
ATOM     11  C   UNL     1     164.200 142.395  92.399  0.00  0.00    +0.000 C 
ATOM     12  C   UNL     1     161.170 145.151  89.907  0.00  0.00    +0.000 C 
ATOM     13  C   UNL     1     160.268 147.621  88.116  0.00  0.00    +0.000 C 
ATOM     14  C   UNL     1     161.465 144.325  90.504  0.00  0.00    +0.000 C 
ATOM     15  C   UNL     1     162.069 142.604  91.746  0.00  0.00    +0.000 C 
ATOM     16  C   UNL     1     163.544 146.660  89.527  0.00  0.00    +0.000 C 
ATOM     17  C   UNL     1     162.949 147.420  88.899  0.00  0.00    +0.000 C 
ATOM     18  C   UNL     1     163.451 141.622  92.707  0.00  0.00    +0.000 C 
ATOM     19  C   UNL     1     161.973 148.188  88.172  0.00  0.00    +0.000 C 
ATOM     20  O   UNL     1     159.363 147.692  87.850  0.00  0.00    +0.000 OA
ATOM     21  O   UNL     1     163.750 140.767  93.324  0.00  0.00    +0.000 OA
ATOM     22  C   UNL     1     161.100 148.365  87.846  0.00  0.00    +0.000 C 
ATOM     23  C   UNL     1     162.356 141.731  92.371  0.00  0.00    +0.000 C 
ATOM     24  C   UNL     1     161.730 143.430  91.138  0.00  0.00    +0.000 C 
ATOM     25  C   UNL     1     160.816 145.986  89.290  0.00  0.00    +0.000 C 
ENDROOT
TORSDOF 0
ENDMDL
MODEL 16
REMARK VINA RESULT:     -11.2     87.453     90.451
REMARK  Name = 
REMARK  0 active torsions:
REMARK  status: ('A' for Active; 'I' for Inactive)
REMARK                            x       y       z     vdW  Elec       q    Type
REMARK                         _______ _______ _______ _____ _____    ______ ____
ROOT
ATOM      1  C   UNL     1     120.397 160.348 179.557  0.00  0.00    +0.000 C 
ATOM      2  C   UNL     1     118.842 159.513 176.787  0.00  0.00    +0.000 C 
ATOM      3  C   UNL     1     121.221 159.685 179.928  0.00  0.00    +0.000 C 
ATOM      4  C   UNL     1     118.444 158.946 175.726  0.00  0.00    +0.000 C 
ATOM      5  C   UNL     1     120.145 159.169 178.073  0.00  0.00    +0.000 C 
ATOM      6  C   UNL     1     119.867 160.076 178.626  0.00  0.00    +0.000 C 
ATOM      7  C   UNL     1     119.629 158.895 177.156  0.00  0.00    +0.000 C 
ATOM      8  C   UNL     1     120.999 158.510 178.485  0.00  0.00    +0.000 C 
ATOM      9  O   UNL     1     117.587 159.906 175.609  0.00  0.00    +0.000 OA
ATOM     10  C   UNL     1     121.522 158.763 179.389  0.00  0.00    +0.000 C 
ATOM     11  C   UNL     1     121.752 159.959 180.864  0.00  0.00    +0.000 C 
ATOM     12  C   UNL     1     118.545 160.435 177.332  0.00  0.00    +0.000 C 
ATOM     13  C   UNL     1     117.015 159.662 174.653  0.00  0.00    +0.000 C 
ATOM     14  C   UNL     1     119.052 160.699 178.226  0.00  0.00    +0.000 C 
ATOM     15  C   UNL     1     120.100 161.255 180.087  0.00  0.00    +0.000 C 
ATOM     16  C   UNL     1     119.778 158.025 176.479  0.00  0.00    +0.000 C 
ATOM     17  C   UNL     1     119.072 157.998 175.569  0.00  0.00    +0.000 C 
ATOM     18  C   UNL     1     121.467 160.884 181.426  0.00  0.00    +0.000 C 
ATOM     19  C   UNL     1     118.081 158.217 174.550  0.00  0.00    +0.000 C 
ATOM     20  O   UNL     1     116.320 160.221 174.340  0.00  0.00    +0.000 OA
ATOM     21  O   UNL     1     121.987 161.161 182.350  0.00  0.00    +0.000 OA
ATOM     22  C   UNL     1     117.372 158.697 174.141  0.00  0.00    +0.000 C 
ATOM     23  C   UNL     1     120.618 161.549 181.026  0.00  0.00    +0.000 C 
ATOM     24  C   UNL     1     119.561 161.020 179.181  0.00  0.00    +0.000 C 
ATOM     25  C   UNL     1     117.992 160.206 176.414  0.00  0.00    +0.000 C 
ENDROOT
TORSDOF 0
ENDMDL
MODEL 17
REMARK VINA RESULT:     -11.2     97.273    100.814
REMARK  Name = 
REMARK  0 active torsions:
REMARK  status: ('A' for Active; 'I' for Inactive)
REMARK                            x       y       z     vdW  Elec       q    Type
REMARK                         _______ _______ _______ _____ _____    ______ ____
ROOT
ATOM      1  C   UNL     1     161.274 129.928 182.331  0.00  0.00    +0.000 C 
ATOM      2  C   UNL     1     161.502 127.429 184.449  0.00  0.00    +0.000 C 
ATOM      3  C   UNL     1     161.110 129.697 181.246  0.00  0.00    +0.000 C 
ATOM      4  C   UNL     1     161.547 126.291 185.005  0.00  0.00    +0.000 C 
ATOM      5  C   UNL     1     161.270 128.054 182.710  0.00  0.00    +0.000 C 
ATOM      6  C   UNL     1     161.353 129.095 183.052  0.00  0.00    +0.000 C 
ATOM      7  C   UNL     1     161.346 127.229 183.414  0.00  0.00    +0.000 C 
ATOM      8  C   UNL     1     161.101 127.853 181.586  0.00  0.00    +0.000 C 
ATOM      9  O   UNL     1     161.729 126.913 186.123  0.00  0.00    +0.000 OA
ATOM     10  C   UNL     1     161.023 128.655 180.874  0.00  0.00    +0.000 C 
ATOM     11  C   UNL     1     161.032 130.535 180.523  0.00  0.00    +0.000 C 
ATOM     12  C   UNL     1     161.589 128.475 184.816  0.00  0.00    +0.000 C 
ATOM     13  C   UNL     1     161.815 126.082 186.900  0.00  0.00    +0.000 C 
ATOM     14  C   UNL     1     161.514 129.277 184.126  0.00  0.00    +0.000 C 
ATOM     15  C   UNL     1     161.360 130.953 182.697  0.00  0.00    +0.000 C 
ATOM     16  C   UNL     1     161.287 126.131 183.244  0.00  0.00    +0.000 C 
ATOM     17  C   UNL     1     161.404 125.491 184.194  0.00  0.00    +0.000 C 
ATOM     18  C   UNL     1     161.116 131.595 180.874  0.00  0.00    +0.000 C 
ATOM     19  C   UNL     1     161.579 124.956 185.518  0.00  0.00    +0.000 C 
ATOM     20  O   UNL     1     161.954 126.278 187.815  0.00  0.00    +0.000 OA
ATOM     21  O   UNL     1     161.040 132.427 180.165  0.00  0.00    +0.000 OA
ATOM     22  C   UNL     1     161.717 125.028 186.455  0.00  0.00    +0.000 C 
ATOM     23  C   UNL     1     161.285 131.808 181.992  0.00  0.00    +0.000 C 
ATOM     24  C   UNL     1     161.441 130.163 183.431  0.00  0.00    +0.000 C 
ATOM     25  C   UNL     1     161.672 127.681 185.568  0.00  0.00    +0.000 C 
ENDROOT
TORSDOF 0
ENDMDL
MODEL 18
REMARK VINA RESULT:     -11.1     53.712     55.015
REMARK  Name = 
REMARK  0 active torsions:
REMARK  status: ('A' for Active; 'I' for Inactive)
REMARK                            x       y       z     vdW  Elec       q    Type
REMARK                         _______ _______ _______ _____ _____    ______ ____
ROOT
ATOM      1  C   UNL     1     111.761 127.778 132.865  0.00  0.00    +0.000 C 
ATOM      2  C   UNL     1     108.911 127.569 134.485  0.00  0.00    +0.000 C 
ATOM      3  C   UNL     1     112.005 126.988 132.109  0.00  0.00    +0.000 C 
ATOM      4  C   UNL     1     107.776 127.228 134.933  0.00  0.00    +0.000 C 
ATOM      5  C   UNL     1     110.104 126.894 133.224  0.00  0.00    +0.000 C 
ATOM      6  C   UNL     1     110.804 127.718 133.416  0.00  0.00    +0.000 C 
ATOM      7  C   UNL     1     109.161 126.827 133.761  0.00  0.00    +0.000 C 
ATOM      8  C   UNL     1     110.388 126.097 132.438  0.00  0.00    +0.000 C 
ATOM      9  O   UNL     1     107.832 128.271 135.695  0.00  0.00    +0.000 OA
ATOM     10  C   UNL     1     111.315 126.145 131.895  0.00  0.00    +0.000 C 
ATOM     11  C   UNL     1     112.966 127.050 131.556  0.00  0.00    +0.000 C 
ATOM     12  C   UNL     1     109.606 128.411 134.695  0.00  0.00    +0.000 C 
ATOM     13  C   UNL     1     106.856 128.245 136.284  0.00  0.00    +0.000 C 
ATOM     14  C   UNL     1     110.525 128.472 134.167  0.00  0.00    +0.000 C 
ATOM     15  C   UNL     1     112.438 128.607 133.076  0.00  0.00    +0.000 C 
ATOM     16  C   UNL     1     108.347 126.073 133.694  0.00  0.00    +0.000 C 
ATOM     17  C   UNL     1     107.455 126.265 134.397  0.00  0.00    +0.000 C 
ATOM     18  C   UNL     1     113.678 127.891 131.754  0.00  0.00    +0.000 C 
ATOM     19  C   UNL     1     106.499 126.744 135.360  0.00  0.00    +0.000 C 
ATOM     20  O   UNL     1     106.650 128.912 136.923  0.00  0.00    +0.000 OA
ATOM     21  O   UNL     1     114.628 127.958 131.212  0.00  0.00    +0.000 OA
ATOM     22  C   UNL     1     106.186 127.351 136.020  0.00  0.00    +0.000 C 
ATOM     23  C   UNL     1     113.406 128.690 132.535  0.00  0.00    +0.000 C 
ATOM     24  C   UNL     1     111.513 128.580 133.633  0.00  0.00    +0.000 C 
ATOM     25  C   UNL     1     108.670 128.392 135.265  0.00  0.00    +0.000 C 
ENDROOT
TORSDOF 0
ENDMDL
MODEL 19
REMARK VINA RESULT:     -11.0     19.188     19.666
REMARK  Name = 
REMARK  0 active torsions:
REMARK  status: ('A' for Active; 'I' for Inactive)
REMARK                            x       y       z     vdW  Elec       q    Type
REMARK                         _______ _______ _______ _____ _____    ______ ____
ROOT
ATOM      1  C   UNL     1     118.134 146.139  97.575  0.00  0.00    +0.000 C 
ATOM      2  C   UNL     1     115.884 147.844  99.253  0.00  0.00    +0.000 C 
ATOM      3  C   UNL     1     118.977 146.698  97.090  0.00  0.00    +0.000 C 
ATOM      4  C   UNL     1     115.195 148.748  99.814  0.00  0.00    +0.000 C 
ATOM      5  C   UNL     1     117.439 147.796  98.229  0.00  0.00    +0.000 C 
ATOM      6  C   UNL     1     117.371 146.703  98.142  0.00  0.00    +0.000 C 
ATOM      7  C   UNL     1     116.693 148.357  98.786  0.00  0.00    +0.000 C 
ATOM      8  C   UNL     1     118.320 148.339  97.718  0.00  0.00    +0.000 C 
ATOM      9  O   UNL     1     114.405 147.808 100.218  0.00  0.00    +0.000 OA
ATOM     10  C   UNL     1     119.068 147.802  97.163  0.00  0.00    +0.000 C 
ATOM     11  C   UNL     1     119.742 146.131  96.521  0.00  0.00    +0.000 C 
ATOM     12  C   UNL     1     115.797 146.738  99.177  0.00  0.00    +0.000 C 
ATOM     13  C   UNL     1     113.597 148.352 100.812  0.00  0.00    +0.000 C 
ATOM     14  C   UNL     1     116.528 146.194  98.633  0.00  0.00    +0.000 C 
ATOM     15  C   UNL     1     118.043 145.054  97.504  0.00  0.00    +0.000 C 
ATOM     16  C   UNL     1     116.607 149.451  98.973  0.00  0.00    +0.000 C 
ATOM     17  C   UNL     1     115.696 149.760  99.607  0.00  0.00    +0.000 C 
ATOM     18  C   UNL     1     119.671 145.017  96.433  0.00  0.00    +0.000 C 
ATOM     19  C   UNL     1     114.500 149.852 100.401  0.00  0.00    +0.000 C 
ATOM     20  O   UNL     1     112.887 147.880 101.221  0.00  0.00    +0.000 OA
ATOM     21  O   UNL     1     120.423 144.451  95.873  0.00  0.00    +0.000 OA
ATOM     22  C   UNL     1     113.747 149.490 100.851  0.00  0.00    +0.000 C 
ATOM     23  C   UNL     1     118.798 144.465  96.939  0.00  0.00    +0.000 C 
ATOM     24  C   UNL     1     117.280 145.572  98.066  0.00  0.00    +0.000 C 
ATOM     25  C   UNL     1     115.018 147.255  99.750  0.00  0.00    +0.000 C 
ENDROOT
TORSDOF 0
ENDMDL
MODEL 20
REMARK VINA RESULT:     -11.0     27.458     29.782
REMARK  Name = 
REMARK  0 active torsions:
REMARK  status: ('A' for Active; 'I' for Inactive)
REMARK                            x       y       z     vdW  Elec       q    Type
REMARK                         _______ _______ _______ _____ _____    ______ ____
ROOT
ATOM      1  C   UNL     1     161.385 146.530  89.088  0.00  0.00    +0.000 C 
ATOM      2  C   UNL     1     162.998 144.291  90.869  0.00  0.00    +0.000 C 
ATOM      3  C   UNL     1     161.943 147.436  88.736  0.00  0.00    +0.000 C 
ATOM      4  C   UNL     1     163.863 143.627  91.515  0.00  0.00    +0.000 C 
ATOM      5  C   UNL     1     162.980 145.902  89.935  0.00  0.00    +0.000 C 
ATOM      6  C   UNL     1     161.918 145.771  89.688  0.00  0.00    +0.000 C 
ATOM      7  C   UNL     1     163.511 145.159  90.524  0.00  0.00    +0.000 C 
ATOM      8  C   UNL     1     163.524 146.848  89.555  0.00  0.00    +0.000 C 
ATOM      9  O   UNL     1     162.935 142.754  91.736  0.00  0.00    +0.000 OA
ATOM     10  C   UNL     1     163.016 147.594  88.971  0.00  0.00    +0.000 C 
ATOM     11  C   UNL     1     161.407 148.199  88.133  0.00  0.00    +0.000 C 
ATOM     12  C   UNL     1     161.923 144.138  90.631  0.00  0.00    +0.000 C 
ATOM     13  C   UNL     1     163.449 141.946  92.358  0.00  0.00    +0.000 C 
ATOM     14  C   UNL     1     161.408 144.866  90.055  0.00  0.00    +0.000 C 
ATOM     15  C   UNL     1     160.330 146.375  88.858  0.00  0.00    +0.000 C 
ATOM     16  C   UNL     1     164.571 145.132  90.862  0.00  0.00    +0.000 C 
ATOM     17  C   UNL     1     164.854 144.204  91.483  0.00  0.00    +0.000 C 
ATOM     18  C   UNL     1     160.324 148.062  87.883  0.00  0.00    +0.000 C 
ATOM     19  C   UNL     1     164.922 142.968  92.216  0.00  0.00    +0.000 C 
ATOM     20  O   UNL     1     162.977 141.182  92.655  0.00  0.00    +0.000 OA
ATOM     21  O   UNL     1     159.788 148.811  87.289  0.00  0.00    +0.000 OA
ATOM     22  C   UNL     1     164.556 142.166  92.568  0.00  0.00    +0.000 C 
ATOM     23  C   UNL     1     159.772 147.124  88.256  0.00  0.00    +0.000 C 
ATOM     24  C   UNL     1     160.818 145.612  89.446  0.00  0.00    +0.000 C 
ATOM     25  C   UNL     1     162.410 143.359  91.228  0.00  0.00    +0.000 C 
ENDROOT
TORSDOF 0
ENDMDL
