MODEL 1
REMARK VINA RESULT:      -9.3      0.000      0.000
REMARK  Name = 
REMARK  2 active torsions:
REMARK  status: ('A' for Active; 'I' for Inactive)
REMARK    1  A    between atoms: S_4  and  C_6
REMARK    2  A    between atoms: C_5  and  C_14
REMARK                            x       y       z     vdW  Elec       q    Type
REMARK                         _______ _______ _______ _____ _____    ______ ____
ROOT
ATOM      1  S   UNL     1     153.432 130.978 140.794  0.00  0.00    +0.000 S 
ATOM      2  N   UNL     1     153.249 130.776 141.444  0.00  0.00    +0.000 NA
ATOM      3  C   UNL     1     153.557 131.657 140.671  0.00  0.00    +0.000 A 
ATOM      4  C   UNL     1     153.191 131.241 141.964  0.00  0.00    +0.000 C 
ATOM      5  C   UNL     1     153.868 132.553 139.896  0.00  0.00    +0.000 A 
ATOM      6  C   UNL     1     153.501 132.125 141.188  0.00  0.00    +0.000 A 
ATOM      7  N   UNL     1     153.319 131.924 141.832  0.00  0.00    +0.000 NA
ATOM      8  C   UNL     1     153.742 131.866 140.016  0.00  0.00    +0.000 A 
ATOM      9  C   UNL     1     153.812 133.017 140.407  0.00  0.00    +0.000 A 
ATOM     10  C   UNL     1     153.629 132.811 141.053  0.00  0.00    +0.000 A 
ATOM     11  O   UNL     1     153.361 130.287 140.682  0.00  0.00    +0.000 OA
ATOM     12  O   UNL     1     153.593 130.948 140.097  0.00  0.00    +0.000 OA
ATOM     13 CL   UNL     1     153.940 133.705 140.275  0.00  0.00    +0.000 Cl
ENDROOT
BRANCH   5  14
ATOM     14  S   UNL     1     154.052 132.765 139.244  0.00  0.00    +0.000 S 
ATOM     15  O   UNL     1     154.739 132.711 139.411  0.00  0.00    +0.000 OA
ATOM     16  O   UNL     1     154.553 132.923 138.758  0.00  0.00    +0.000 OA
ATOM     17  N   UNL     1     153.553 132.920 138.766  0.00  0.00    +0.000 NA
ENDBRANCH   5  14
BRANCH   4  18
ATOM     18  C   UNL     1     153.011 131.079 142.628  0.00  0.00    +0.000 C 
ATOM     19 CL   UNL     1     152.361 131.173 142.903  0.00  0.00    +0.000 Cl
ATOM     20 CL   UNL     1     153.606 130.769 143.073  0.00  0.00    +0.000 Cl
ENDBRANCH   4  18
TORSDOF 2
ENDMDL
MODEL 2
REMARK VINA RESULT:      -8.7     63.302     64.647
REMARK  Name = 
REMARK  2 active torsions:
REMARK  status: ('A' for Active; 'I' for Inactive)
REMARK    1  A    between atoms: S_4  and  C_6
REMARK    2  A    between atoms: C_5  and  C_14
REMARK                            x       y       z     vdW  Elec       q    Type
REMARK                         _______ _______ _______ _____ _____    ______ ____
ROOT
ATOM      1  S   UNL     1     127.358 110.060 194.500  0.00  0.00    +0.000 S 
ATOM      2  N   UNL     1     127.232 110.721 194.289  0.00  0.00    +0.000 NA
ATOM      3  C   UNL     1     126.941 109.772 194.985  0.00  0.00    +0.000 A 
ATOM      4  C   UNL     1     126.700 111.089 194.554  0.00  0.00    +0.000 C 
ATOM      5  C   UNL     1     126.639 108.819 195.692  0.00  0.00    +0.000 A 
ATOM      6  C   UNL     1     126.407 110.138 195.253  0.00  0.00    +0.000 A 
ATOM      7  N   UNL     1     126.284 110.793 195.042  0.00  0.00    +0.000 NA
ATOM      8  C   UNL     1     127.063 109.106 195.202  0.00  0.00    +0.000 A 
ATOM      9  C   UNL     1     126.112 109.180 195.958  0.00  0.00    +0.000 A 
ATOM     10  C   UNL     1     125.990 109.838 195.744  0.00  0.00    +0.000 A 
ATOM     11  O   UNL     1     127.879 110.130 194.033  0.00  0.00    +0.000 OA
ATOM     12  O   UNL     1     127.662 109.415 194.556  0.00  0.00    +0.000 OA
ATOM     13 CL   UNL     1     125.691 108.882 196.450  0.00  0.00    +0.000 Cl
ENDROOT
BRANCH   5  14
ATOM     14  S   UNL     1     126.759 108.154 195.911  0.00  0.00    +0.000 S 
ATOM     15  O   UNL     1     126.353 107.900 195.388  0.00  0.00    +0.000 OA
ATOM     16  O   UNL     1     126.663 107.449 195.844  0.00  0.00    +0.000 OA
ATOM     17  N   UNL     1     127.170 108.035 196.476  0.00  0.00    +0.000 NA
ENDBRANCH   5  14
BRANCH   4  18
ATOM     18  C   UNL     1     126.541 111.754 194.368  0.00  0.00    +0.000 C 
ATOM     19 CL   UNL     1     126.034 111.930 193.901  0.00  0.00    +0.000 Cl
ATOM     20 CL   UNL     1     126.984 112.320 194.730  0.00  0.00    +0.000 Cl
ENDBRANCH   4  18
TORSDOF 2
ENDMDL
MODEL 3
REMARK VINA RESULT:      -8.2     48.286     48.565
REMARK  Name = 
REMARK  2 active torsions:
REMARK  status: ('A' for Active; 'I' for Inactive)
REMARK    1  A    between atoms: S_4  and  C_6
REMARK    2  A    between atoms: C_5  and  C_14
REMARK                            x       y       z     vdW  Elec       q    Type
REMARK                         _______ _______ _______ _____ _____    ______ ____
ROOT
ATOM      1  S   UNL     1     150.361 140.665 188.270  0.00  0.00    +0.000 S 
ATOM      2  N   UNL     1     149.737 140.989 188.222  0.00  0.00    +0.000 NA
ATOM      3  C   UNL     1     150.381 139.986 188.444  0.00  0.00    +0.000 A 
ATOM      4  C   UNL     1     149.141 140.643 188.345  0.00  0.00    +0.000 C 
ATOM      5  C   UNL     1     151.023 138.968 188.671  0.00  0.00    +0.000 A 
ATOM      6  C   UNL     1     149.787 139.637 188.568  0.00  0.00    +0.000 A 
ATOM      7  N   UNL     1     149.168 139.959 188.520  0.00  0.00    +0.000 NA
ATOM      8  C   UNL     1     151.008 139.655 188.494  0.00  0.00    +0.000 A 
ATOM      9  C   UNL     1     150.436 138.623 188.793  0.00  0.00    +0.000 A 
ATOM     10  C   UNL     1     149.816 138.949 188.744  0.00  0.00    +0.000 A 
ATOM     11  O   UNL     1     150.582 141.309 188.091  0.00  0.00    +0.000 OA
ATOM     12  O   UNL     1     151.069 140.556 188.258  0.00  0.00    +0.000 OA
ATOM     13 CL   UNL     1     150.462 137.933 188.970  0.00  0.00    +0.000 Cl
ENDROOT
BRANCH   5  14
ATOM     14  S   UNL     1     151.647 138.634 188.721  0.00  0.00    +0.000 S 
ATOM     15  O   UNL     1     151.644 138.504 188.024  0.00  0.00    +0.000 OA
ATOM     16  O   UNL     1     152.191 138.279 188.421  0.00  0.00    +0.000 OA
ATOM     17  N   UNL     1     151.970 138.576 189.350  0.00  0.00    +0.000 NA
ENDBRANCH   5  14
BRANCH   4  18
ATOM     18  C   UNL     1     148.496 140.932 188.307  0.00  0.00    +0.000 C 
ATOM     19 CL   UNL     1     148.096 140.948 187.718  0.00  0.00    +0.000 Cl
ATOM     20 CL   UNL     1     148.230 141.254 188.996  0.00  0.00    +0.000 Cl
ENDBRANCH   4  18
TORSDOF 2
ENDMDL
MODEL 4
REMARK VINA RESULT:      -8.0     58.285     59.242
REMARK  Name = 
REMARK  2 active torsions:
REMARK  status: ('A' for Active; 'I' for Inactive)
REMARK    1  A    between atoms: S_4  and  C_6
REMARK    2  A    between atoms: C_5  and  C_14
REMARK                            x       y       z     vdW  Elec       q    Type
REMARK                         _______ _______ _______ _____ _____    ______ ____
ROOT
ATOM      1  S   UNL     1     100.986 134.846 165.694  0.00  0.00    +0.000 S 
ATOM      2  N   UNL     1     101.053 134.475 165.099  0.00  0.00    +0.000 NA
ATOM      3  C   UNL     1     100.355 135.097 165.871  0.00  0.00    +0.000 A 
ATOM      4  C   UNL     1     100.500 134.354 164.686  0.00  0.00    +0.000 C 
ATOM      5  C   UNL     1      99.644 135.723 166.647  0.00  0.00    +0.000 A 
ATOM      6  C   UNL     1      99.801 134.978 165.461  0.00  0.00    +0.000 A 
ATOM      7  N   UNL     1      99.868 134.609 164.871  0.00  0.00    +0.000 NA
ATOM      8  C   UNL     1     100.283 135.472 166.472  0.00  0.00    +0.000 A 
ATOM      9  C   UNL     1      99.095 135.606 166.241  0.00  0.00    +0.000 A 
ATOM     10  C   UNL     1      99.165 135.235 165.649  0.00  0.00    +0.000 A 
ATOM     11  O   UNL     1     101.675 134.707 165.724  0.00  0.00    +0.000 OA
ATOM     12  O   UNL     1     101.153 135.175 166.307  0.00  0.00    +0.000 OA
ATOM     13 CL   UNL     1      98.457 135.863 166.427  0.00  0.00    +0.000 Cl
ENDROOT
BRANCH   5  14
ATOM     14  S   UNL     1      99.568 136.098 167.245  0.00  0.00    +0.000 S 
ATOM     15  O   UNL     1      99.679 136.703 166.890  0.00  0.00    +0.000 OA
ATOM     16  O   UNL     1      99.557 136.724 167.592  0.00  0.00    +0.000 OA
ATOM     17  N   UNL     1      99.434 135.768 167.857  0.00  0.00    +0.000 NA
ENDBRANCH   5  14
BRANCH   4  18
ATOM     18  C   UNL     1     100.526 133.987 164.082  0.00  0.00    +0.000 C 
ATOM     19 CL   UNL     1     100.748 134.251 163.459  0.00  0.00    +0.000 Cl
ATOM     20 CL   UNL     1     100.279 133.223 164.141  0.00  0.00    +0.000 Cl
ENDBRANCH   4  18
TORSDOF 2
ENDMDL
MODEL 5
REMARK VINA RESULT:      -7.7     42.754     43.104
REMARK  Name = 
REMARK  2 active torsions:
REMARK  status: ('A' for Active; 'I' for Inactive)
REMARK    1  A    between atoms: S_4  and  C_6
REMARK    2  A    between atoms: C_5  and  C_14
REMARK                            x       y       z     vdW  Elec       q    Type
REMARK                         _______ _______ _______ _____ _____    ______ ____
ROOT
ATOM      1  S   UNL     1     113.671 126.679 157.131  0.00  0.00    +0.000 S 
ATOM      2  N   UNL     1     113.715 126.435 156.472  0.00  0.00    +0.000 NA
ATOM      3  C   UNL     1     113.966 127.296 157.287  0.00  0.00    +0.000 A 
ATOM      4  C   UNL     1     114.047 126.799 155.974  0.00  0.00    +0.000 C 
ATOM      5  C   UNL     1     114.224 128.170 158.105  0.00  0.00    +0.000 A 
ATOM      6  C   UNL     1     114.299 127.663 156.793  0.00  0.00    +0.000 A 
ATOM      7  N   UNL     1     114.342 127.420 156.138  0.00  0.00    +0.000 NA
ATOM      8  C   UNL     1     113.924 127.546 157.952  0.00  0.00    +0.000 A 
ATOM      9  C   UNL     1     114.553 128.533 157.616  0.00  0.00    +0.000 A 
ATOM     10  C   UNL     1     114.595 128.287 156.960  0.00  0.00    +0.000 A 
ATOM     11  O   UNL     1     113.320 126.075 157.211  0.00  0.00    +0.000 OA
ATOM     12  O   UNL     1     113.507 126.720 157.827  0.00  0.00    +0.000 OA
ATOM     13 CL   UNL     1     114.851 129.159 157.781  0.00  0.00    +0.000 Cl
ENDROOT
BRANCH   5  14
ATOM     14  S   UNL     1     114.184 128.423 158.768  0.00  0.00    +0.000 S 
ATOM     15  O   UNL     1     113.616 128.811 158.595  0.00  0.00    +0.000 OA
ATOM     16  O   UNL     1     113.869 128.835 159.260  0.00  0.00    +0.000 OA
ATOM     17  N   UNL     1     114.655 128.216 159.256  0.00  0.00    +0.000 NA
ENDBRANCH   5  14
BRANCH   4  18
ATOM     18  C   UNL     1     114.112 126.589 155.301  0.00  0.00    +0.000 C 
ATOM     19 CL   UNL     1     113.602 126.652 154.809  0.00  0.00    +0.000 Cl
ATOM     20 CL   UNL     1     114.825 126.263 155.119  0.00  0.00    +0.000 Cl
ENDBRANCH   4  18
TORSDOF 2
ENDMDL
MODEL 6
REMARK VINA RESULT:      -7.7     56.015     56.298
REMARK  Name = 
REMARK  2 active torsions:
REMARK  status: ('A' for Active; 'I' for Inactive)
REMARK    1  A    between atoms: S_4  and  C_6
REMARK    2  A    between atoms: C_5  and  C_14
REMARK                            x       y       z     vdW  Elec       q    Type
REMARK                         _______ _______ _______ _____ _____    ______ ____
ROOT
ATOM      1  S   UNL     1     116.087 158.236 173.306  0.00  0.00    +0.000 S 
ATOM      2  N   UNL     1     115.511 158.094 172.927  0.00  0.00    +0.000 NA
ATOM      3  C   UNL     1     116.248 157.823 173.850  0.00  0.00    +0.000 A 
ATOM      4  C   UNL     1     115.100 157.549 173.086  0.00  0.00    +0.000 C 
ATOM      5  C   UNL     1     116.989 157.543 174.785  0.00  0.00    +0.000 A 
ATOM      6  C   UNL     1     115.840 157.278 174.012  0.00  0.00    +0.000 A 
ATOM      7  N   UNL     1     115.269 157.137 173.635  0.00  0.00    +0.000 NA
ATOM      8  C   UNL     1     116.830 157.963 174.236  0.00  0.00    +0.000 A 
ATOM      9  C   UNL     1     116.585 157.004 174.945  0.00  0.00    +0.000 A 
ATOM     10  C   UNL     1     116.012 156.865 174.564  0.00  0.00    +0.000 A 
ATOM     11  O   UNL     1     116.128 158.759 172.838  0.00  0.00    +0.000 OA
ATOM     12  O   UNL     1     116.685 158.558 173.531  0.00  0.00    +0.000 OA
ATOM     13 CL   UNL     1     116.754 156.588 175.499  0.00  0.00    +0.000 Cl
ENDROOT
BRANCH   5  14
ATOM     14  S   UNL     1     117.568 157.680 175.172  0.00  0.00    +0.000 S 
ATOM     15  O   UNL     1     117.934 157.190 174.813  0.00  0.00    +0.000 OA
ATOM     16  O   UNL     1     118.254 157.558 175.333  0.00  0.00    +0.000 OA
ATOM     17  N   UNL     1     117.547 158.173 175.680  0.00  0.00    +0.000 NA
ENDBRANCH   5  14
BRANCH   4  18
ATOM     18  C   UNL     1     114.514 157.373 172.730  0.00  0.00    +0.000 C 
ATOM     19 CL   UNL     1     113.852 157.477 172.969  0.00  0.00    +0.000 Cl
ATOM     20 CL   UNL     1     114.645 157.034 172.011  0.00  0.00    +0.000 Cl
ENDBRANCH   4  18
TORSDOF 2
ENDMDL
MODEL 7
REMARK VINA RESULT:      -7.6     56.055     56.666
REMARK  Name = 
REMARK  2 active torsions:
REMARK  status: ('A' for Active; 'I' for Inactive)
REMARK    1  A    between atoms: S_4  and  C_6
REMARK    2  A    between atoms: C_5  and  C_14
REMARK                            x       y       z     vdW  Elec       q    Type
REMARK                         _______ _______ _______ _____ _____    ______ ____
ROOT
ATOM      1  S   UNL     1     115.318 157.972 172.166  0.00  0.00    +0.000 S 
ATOM      2  N   UNL     1     114.940 158.122 171.590  0.00  0.00    +0.000 NA
ATOM      3  C   UNL     1     114.987 157.749 172.743  0.00  0.00    +0.000 A 
ATOM      4  C   UNL     1     114.244 158.051 171.588  0.00  0.00    +0.000 C 
ATOM      5  C   UNL     1     115.025 157.372 173.908  0.00  0.00    +0.000 A 
ATOM      6  C   UNL     1     114.291 157.677 172.744  0.00  0.00    +0.000 A 
ATOM      7  N   UNL     1     113.917 157.826 172.172  0.00  0.00    +0.000 NA
ATOM      8  C   UNL     1     115.364 157.597 173.327  0.00  0.00    +0.000 A 
ATOM      9  C   UNL     1     114.337 157.301 173.909  0.00  0.00    +0.000 A 
ATOM     10  C   UNL     1     113.964 157.450 173.333  0.00  0.00    +0.000 A 
ATOM     11  O   UNL     1     115.840 158.167 171.736  0.00  0.00    +0.000 OA
ATOM     12  O   UNL     1     115.878 157.887 172.604  0.00  0.00    +0.000 OA
ATOM     13 CL   UNL     1     114.006 157.074 174.498  0.00  0.00    +0.000 Cl
ENDROOT
BRANCH   5  14
ATOM     14  S   UNL     1     115.398 157.219 174.492  0.00  0.00    +0.000 S 
ATOM     15  O   UNL     1     115.476 156.548 174.278  0.00  0.00    +0.000 OA
ATOM     16  O   UNL     1     115.762 156.754 174.896  0.00  0.00    +0.000 OA
ATOM     17  N   UNL     1     115.522 157.722 174.976  0.00  0.00    +0.000 NA
ENDBRANCH   5  14
BRANCH   4  18
ATOM     18  C   UNL     1     113.830 158.190 171.031  0.00  0.00    +0.000 C 
ATOM     19 CL   UNL     1     113.421 158.770 170.969  0.00  0.00    +0.000 Cl
ATOM     20 CL   UNL     1     113.848 157.633 170.450  0.00  0.00    +0.000 Cl
ENDBRANCH   4  18
TORSDOF 2
ENDMDL
MODEL 8
REMARK VINA RESULT:      -7.6     43.170     43.579
REMARK  Name = 
REMARK  2 active torsions:
REMARK  status: ('A' for Active; 'I' for Inactive)
REMARK    1  A    between atoms: S_4  and  C_6
REMARK    2  A    between atoms: C_5  and  C_14
REMARK                            x       y       z     vdW  Elec       q    Type
REMARK                         _______ _______ _______ _____ _____    ______ ____
ROOT
ATOM      1  S   UNL     1     115.644 124.015 122.339  0.00  0.00    +0.000 S 
ATOM      2  N   UNL     1     115.491 124.699 122.404  0.00  0.00    +0.000 NA
ATOM      3  C   UNL     1     115.191 123.539 122.584  0.00  0.00    +0.000 A 
ATOM      4  C   UNL     1     114.896 124.908 122.708  0.00  0.00    +0.000 C 
ATOM      5  C   UNL     1     114.880 122.369 122.770  0.00  0.00    +0.000 A 
ATOM      6  C   UNL     1     114.595 123.744 122.889  0.00  0.00    +0.000 A 
ATOM      7  N   UNL     1     114.444 124.424 122.953  0.00  0.00    +0.000 NA
ATOM      8  C   UNL     1     115.341 122.846 122.521  0.00  0.00    +0.000 A 
ATOM      9  C   UNL     1     114.291 122.572 123.072  0.00  0.00    +0.000 A 
ATOM     10  C   UNL     1     114.142 123.255 123.135  0.00  0.00    +0.000 A 
ATOM     11  O   UNL     1     116.217 124.287 122.035  0.00  0.00    +0.000 OA
ATOM     12  O   UNL     1     115.994 123.413 122.170  0.00  0.00    +0.000 OA
ATOM     13 CL   UNL     1     113.834 122.084 123.319  0.00  0.00    +0.000 Cl
ENDROOT
BRANCH   5  14
ATOM     14  S   UNL     1     115.026 121.677 122.709  0.00  0.00    +0.000 S 
ATOM     15  O   UNL     1     114.667 121.646 122.098  0.00  0.00    +0.000 OA
ATOM     16  O   UNL     1     114.977 121.058 122.354  0.00  0.00    +0.000 OA
ATOM     17  N   UNL     1     115.412 121.350 123.205  0.00  0.00    +0.000 NA
ENDBRANCH   5  14
BRANCH   4  18
ATOM     18  C   UNL     1     114.706 125.585 122.792  0.00  0.00    +0.000 C 
ATOM     19 CL   UNL     1     114.447 125.998 122.273  0.00  0.00    +0.000 Cl
ATOM     20 CL   UNL     1     114.805 125.872 123.538  0.00  0.00    +0.000 Cl
ENDBRANCH   4  18
TORSDOF 2
ENDMDL
MODEL 9
REMARK VINA RESULT:      -7.5     56.441     56.838
REMARK  Name = 
REMARK  2 active torsions:
REMARK  status: ('A' for Active; 'I' for Inactive)
REMARK    1  A    between atoms: S_4  and  C_6
REMARK    2  A    between atoms: C_5  and  C_14
REMARK                            x       y       z     vdW  Elec       q    Type
REMARK                         _______ _______ _______ _____ _____    ______ ____
ROOT
ATOM      1  S   UNL     1      97.230 136.532 135.875  0.00  0.00    +0.000 S 
ATOM      2  N   UNL     1      97.532 136.967 135.410  0.00  0.00    +0.000 NA
ATOM      3  C   UNL     1      97.181 136.731 136.546  0.00  0.00    +0.000 A 
ATOM      4  C   UNL     1      97.781 137.590 135.608  0.00  0.00    +0.000 C 
ATOM      5  C   UNL     1      96.829 136.501 137.696  0.00  0.00    +0.000 A 
ATOM      6  C   UNL     1      97.428 137.354 136.748  0.00  0.00    +0.000 A 
ATOM      7  N   UNL     1      97.728 137.784 136.286  0.00  0.00    +0.000 NA
ATOM      8  C   UNL     1      96.877 136.295 137.019  0.00  0.00    +0.000 A 
ATOM      9  C   UNL     1      97.074 137.116 137.896  0.00  0.00    +0.000 A 
ATOM     10  C   UNL     1      97.374 137.547 137.430  0.00  0.00    +0.000 A 
ATOM     11  O   UNL     1      97.169 136.138 135.296  0.00  0.00    +0.000 OA
ATOM     12  O   UNL     1      96.903 135.957 136.150  0.00  0.00    +0.000 OA
ATOM     13 CL   UNL     1      97.021 137.313 138.579  0.00  0.00    +0.000 Cl
ENDROOT
BRANCH   5  14
ATOM     14  S   UNL     1      96.526 136.068 138.171  0.00  0.00    +0.000 S 
ATOM     15  O   UNL     1      95.896 136.375 138.062  0.00  0.00    +0.000 OA
ATOM     16  O   UNL     1      95.951 135.843 138.532  0.00  0.00    +0.000 OA
ATOM     17  N   UNL     1      96.916 135.582 138.508  0.00  0.00    +0.000 NA
ENDBRANCH   5  14
BRANCH   4  18
ATOM     18  C   UNL     1      98.090 138.054 135.173  0.00  0.00    +0.000 C 
ATOM     19 CL   UNL     1      97.752 138.407 134.654  0.00  0.00    +0.000 Cl
ATOM     20 CL   UNL     1      98.877 138.166 135.303  0.00  0.00    +0.000 Cl
ENDBRANCH   4  18
TORSDOF 2
ENDMDL
MODEL 10
REMARK VINA RESULT:      -7.5     50.468     51.191
REMARK  Name = 
REMARK  2 active torsions:
REMARK  status: ('A' for Active; 'I' for Inactive)
REMARK    1  A    between atoms: S_4  and  C_6
REMARK    2  A    between atoms: C_5  and  C_14
REMARK                            x       y       z     vdW  Elec       q    Type
REMARK                         _______ _______ _______ _____ _____    ______ ____
ROOT
ATOM      1  S   UNL     1     125.400 125.427 182.599  0.00  0.00    +0.000 S 
ATOM      2  N   UNL     1     124.755 125.661 182.756  0.00  0.00    +0.000 NA
ATOM      3  C   UNL     1     125.568 124.763 182.750  0.00  0.00    +0.000 A 
ATOM      4  C   UNL     1     124.283 125.242 183.059  0.00  0.00    +0.000 C 
ATOM      5  C   UNL     1     126.385 123.850 182.748  0.00  0.00    +0.000 A 
ATOM      6  C   UNL     1     125.100 124.341 183.053  0.00  0.00    +0.000 A 
ATOM      7  N   UNL     1     124.459 124.574 183.209  0.00  0.00    +0.000 NA
ATOM      8  C   UNL     1     126.220 124.522 182.593  0.00  0.00    +0.000 A 
ATOM      9  C   UNL     1     125.921 123.432 183.048  0.00  0.00    +0.000 A 
ATOM     10  C   UNL     1     125.279 123.669 183.203  0.00  0.00    +0.000 A 
ATOM     11  O   UNL     1     125.461 126.088 182.366  0.00  0.00    +0.000 OA
ATOM     12  O   UNL     1     126.075 125.414 182.360  0.00  0.00    +0.000 OA
ATOM     13 CL   UNL     1     126.098 122.759 183.199  0.00  0.00    +0.000 Cl
ENDROOT
BRANCH   5  14
ATOM     14  S   UNL     1     127.033 123.606 182.593  0.00  0.00    +0.000 S 
ATOM     15  O   UNL     1     126.806 123.376 181.961  0.00  0.00    +0.000 OA
ATOM     16  O   UNL     1     127.487 123.280 182.146  0.00  0.00    +0.000 OA
ATOM     17  N   UNL     1     127.562 123.680 183.059  0.00  0.00    +0.000 NA
ENDBRANCH   5  14
BRANCH   4  18
ATOM     18  C   UNL     1     123.626 125.439 183.233  0.00  0.00    +0.000 C 
ATOM     19 CL   UNL     1     123.066 125.405 182.793  0.00  0.00    +0.000 Cl
ATOM     20 CL   UNL     1     123.544 125.714 183.985  0.00  0.00    +0.000 Cl
ENDBRANCH   4  18
TORSDOF 2
ENDMDL
MODEL 11
REMARK VINA RESULT:      -7.4      1.918      2.725
REMARK  Name = 
REMARK  2 active torsions:
REMARK  status: ('A' for Active; 'I' for Inactive)
REMARK    1  A    between atoms: S_4  and  C_6
REMARK    2  A    between atoms: C_5  and  C_14
REMARK                            x       y       z     vdW  Elec       q    Type
REMARK                         _______ _______ _______ _____ _____    ______ ____
ROOT
ATOM      1  S   UNL     1     153.940 132.330 138.890  0.00  0.00    +0.000 S 
ATOM      2  N   UNL     1     153.639 132.524 139.498  0.00  0.00    +0.000 NA
ATOM      3  C   UNL     1     154.596 132.537 138.753  0.00  0.00    +0.000 A 
ATOM      4  C   UNL     1     153.986 132.917 139.962  0.00  0.00    +0.000 C 
ATOM      5  C   UNL     1     155.567 132.556 138.007  0.00  0.00    +0.000 A 
ATOM      6  C   UNL     1     154.945 132.931 139.215  0.00  0.00    +0.000 A 
ATOM      7  N   UNL     1     154.646 133.122 139.817  0.00  0.00    +0.000 NA
ATOM      8  C   UNL     1     154.904 132.344 138.141  0.00  0.00    +0.000 A 
ATOM      9  C   UNL     1     155.912 132.945 138.463  0.00  0.00    +0.000 A 
ATOM     10  C   UNL     1     155.610 133.136 139.067  0.00  0.00    +0.000 A 
ATOM     11  O   UNL     1     153.314 132.020 138.810  0.00  0.00    +0.000 OA
ATOM     12  O   UNL     1     154.032 132.029 138.248  0.00  0.00    +0.000 OA
ATOM     13 CL   UNL     1     156.579 133.152 138.318  0.00  0.00    +0.000 Cl
ENDROOT
BRANCH   5  14
ATOM     14  S   UNL     1     155.877 132.365 137.397  0.00  0.00    +0.000 S 
ATOM     15  O   UNL     1     155.657 132.964 137.088  0.00  0.00    +0.000 OA
ATOM     16  O   UNL     1     156.039 132.495 136.713  0.00  0.00    +0.000 OA
ATOM     17  N   UNL     1     156.226 131.750 137.353  0.00  0.00    +0.000 NA
ENDBRANCH   5  14
BRANCH   4  18
ATOM     18  C   UNL     1     153.720 133.132 140.582  0.00  0.00    +0.000 C 
ATOM     19 CL   UNL     1     153.361 133.739 140.677  0.00  0.00    +0.000 Cl
ATOM     20 CL   UNL     1     153.851 132.630 141.197  0.00  0.00    +0.000 Cl
ENDBRANCH   4  18
TORSDOF 2
ENDMDL
MODEL 12
REMARK VINA RESULT:      -7.4      2.706      3.790
REMARK  Name = 
REMARK  2 active torsions:
REMARK  status: ('A' for Active; 'I' for Inactive)
REMARK    1  A    between atoms: S_4  and  C_6
REMARK    2  A    between atoms: C_5  and  C_14
REMARK                            x       y       z     vdW  Elec       q    Type
REMARK                         _______ _______ _______ _____ _____    ______ ____
ROOT
ATOM      1  S   UNL     1     153.452 132.542 138.251  0.00  0.00    +0.000 S 
ATOM      2  N   UNL     1     153.652 132.918 138.813  0.00  0.00    +0.000 NA
ATOM      3  C   UNL     1     153.098 132.861 137.736  0.00  0.00    +0.000 A 
ATOM      4  C   UNL     1     153.503 133.600 138.862  0.00  0.00    +0.000 C 
ATOM      5  C   UNL     1     152.536 132.812 136.649  0.00  0.00    +0.000 A 
ATOM      6  C   UNL     1     152.947 133.543 137.782  0.00  0.00    +0.000 A 
ATOM      7  N   UNL     1     153.146 133.915 138.339  0.00  0.00    +0.000 NA
ATOM      8  C   UNL     1     152.893 132.485 137.167  0.00  0.00    +0.000 A 
ATOM      9  C   UNL     1     152.386 133.486 136.694  0.00  0.00    +0.000 A 
ATOM     10  C   UNL     1     152.587 133.857 137.255  0.00  0.00    +0.000 A 
ATOM     11  O   UNL     1     153.775 132.036 138.617  0.00  0.00    +0.000 OA
ATOM     12  O   UNL     1     153.359 131.989 137.806  0.00  0.00    +0.000 OA
ATOM     13 CL   UNL     1     152.026 133.804 136.167  0.00  0.00    +0.000 Cl
ENDROOT
BRANCH   5  14
ATOM     14  S   UNL     1     152.330 132.440 136.080  0.00  0.00    +0.000 S 
ATOM     15  O   UNL     1     152.930 132.610 135.742  0.00  0.00    +0.000 OA
ATOM     16  O   UNL     1     152.447 132.200 135.416  0.00  0.00    +0.000 OA
ATOM     17  N   UNL     1     151.707 132.103 136.082  0.00  0.00    +0.000 NA
ENDBRANCH   5  14
BRANCH   4  18
ATOM     18  C   UNL     1     153.686 134.012 139.408  0.00  0.00    +0.000 C 
ATOM     19 CL   UNL     1     153.291 134.103 139.993  0.00  0.00    +0.000 Cl
ATOM     20 CL   UNL     1     154.395 134.385 139.326  0.00  0.00    +0.000 Cl
ENDBRANCH   4  18
TORSDOF 2
ENDMDL
MODEL 13
REMARK VINA RESULT:      -7.4     63.743     65.225
REMARK  Name = 
REMARK  2 active torsions:
REMARK  status: ('A' for Active; 'I' for Inactive)
REMARK    1  A    between atoms: S_4  and  C_6
REMARK    2  A    between atoms: C_5  and  C_14
REMARK                            x       y       z     vdW  Elec       q    Type
REMARK                         _______ _______ _______ _____ _____    ______ ____
ROOT
ATOM      1  S   UNL     1     124.615 109.336 195.208  0.00  0.00    +0.000 S 
ATOM      2  N   UNL     1     124.550 108.991 195.819  0.00  0.00    +0.000 NA
ATOM      3  C   UNL     1     125.062 109.876 195.167  0.00  0.00    +0.000 A 
ATOM      4  C   UNL     1     124.924 109.179 196.381  0.00  0.00    +0.000 C 
ATOM      5  C   UNL     1     125.583 110.772 194.515  0.00  0.00    +0.000 A 
ATOM      6  C   UNL     1     125.437 110.066 195.727  0.00  0.00    +0.000 A 
ATOM      7  N   UNL     1     125.372 109.723 196.332  0.00  0.00    +0.000 NA
ATOM      8  C   UNL     1     125.131 110.228 194.552  0.00  0.00    +0.000 A 
ATOM      9  C   UNL     1     125.954 110.961 195.068  0.00  0.00    +0.000 A 
ATOM     10  C   UNL     1     125.887 110.614 195.675  0.00  0.00    +0.000 A 
ATOM     11  O   UNL     1     124.134 108.860 195.018  0.00  0.00    +0.000 OA
ATOM     12  O   UNL     1     124.517 109.524 194.525  0.00  0.00    +0.000 OA
ATOM     13 CL   UNL     1     126.407 111.510 195.020  0.00  0.00    +0.000 Cl
ENDROOT
BRANCH   5  14
ATOM     14  S   UNL     1     125.654 111.125 193.904  0.00  0.00    +0.000 S 
ATOM     15  O   UNL     1     126.193 110.705 193.713  0.00  0.00    +0.000 OA
ATOM     16  O   UNL     1     125.982 111.226 193.276  0.00  0.00    +0.000 OA
ATOM     17  N   UNL     1     125.225 111.669 193.755  0.00  0.00    +0.000 NA
ENDBRANCH   5  14
BRANCH   4  18
ATOM     18  C   UNL     1     124.888 108.858 197.011  0.00  0.00    +0.000 C 
ATOM     19 CL   UNL     1     125.306 108.318 197.212  0.00  0.00    +0.000 Cl
ATOM     20 CL   UNL     1     124.324 109.151 197.506  0.00  0.00    +0.000 Cl
ENDBRANCH   4  18
TORSDOF 2
ENDMDL
MODEL 14
REMARK VINA RESULT:      -7.4     68.651     69.786
REMARK  Name = 
REMARK  2 active torsions:
REMARK  status: ('A' for Active; 'I' for Inactive)
REMARK    1  A    between atoms: S_4  and  C_6
REMARK    2  A    between atoms: C_5  and  C_14
REMARK                            x       y       z     vdW  Elec       q    Type
REMARK                         _______ _______ _______ _____ _____    ______ ____
ROOT
ATOM      1  S   UNL     1     117.374 114.718 197.699  0.00  0.00    +0.000 S 
ATOM      2  N   UNL     1     117.433 115.227 197.216  0.00  0.00    +0.000 NA
ATOM      3  C   UNL     1     117.889 114.632 198.168  0.00  0.00    +0.000 A 
ATOM      4  C   UNL     1     117.995 115.645 197.198  0.00  0.00    +0.000 C 
ATOM      5  C   UNL     1     118.357 114.035 199.130  0.00  0.00    +0.000 A 
ATOM      6  C   UNL     1     118.452 115.047 198.153  0.00  0.00    +0.000 A 
ATOM      7  N   UNL     1     118.510 115.552 197.673  0.00  0.00    +0.000 NA
ATOM      8  C   UNL     1     117.834 114.118 198.658  0.00  0.00    +0.000 A 
ATOM      9  C   UNL     1     118.914 114.445 199.116  0.00  0.00    +0.000 A 
ATOM     10  C   UNL     1     118.969 114.952 198.633  0.00  0.00    +0.000 A 
ATOM     11  O   UNL     1     116.769 114.618 197.356  0.00  0.00    +0.000 OA
ATOM     12  O   UNL     1     117.109 114.168 198.072  0.00  0.00    +0.000 OA
ATOM     13 CL   UNL     1     119.433 114.353 199.595  0.00  0.00    +0.000 Cl
ENDROOT
BRANCH   5  14
ATOM     14  S   UNL     1     118.305 113.524 199.620  0.00  0.00    +0.000 S 
ATOM     15  O   UNL     1     118.646 113.070 199.195  0.00  0.00    +0.000 OA
ATOM     16  O   UNL     1     118.429 112.854 199.838  0.00  0.00    +0.000 OA
ATOM     17  N   UNL     1     117.984 113.655 200.238  0.00  0.00    +0.000 NA
ENDBRANCH   5  14
BRANCH   4  18
ATOM     18  C   UNL     1     118.092 116.166 196.730  0.00  0.00    +0.000 C 
ATOM     19 CL   UNL     1     118.193 116.849 196.903  0.00  0.00    +0.000 Cl
ATOM     20 CL   UNL     1     118.079 115.934 195.959  0.00  0.00    +0.000 Cl
ENDBRANCH   4  18
TORSDOF 2
ENDMDL
MODEL 15
REMARK VINA RESULT:      -7.4      2.844      4.121
REMARK  Name = 
REMARK  2 active torsions:
REMARK  status: ('A' for Active; 'I' for Inactive)
REMARK    1  A    between atoms: S_4  and  C_6
REMARK    2  A    between atoms: C_5  and  C_14
REMARK                            x       y       z     vdW  Elec       q    Type
REMARK                         _______ _______ _______ _____ _____    ______ ____
ROOT
ATOM      1  S   UNL     1     152.799 133.433 137.129  0.00  0.00    +0.000 S 
ATOM      2  N   UNL     1     152.709 132.940 136.634  0.00  0.00    +0.000 NA
ATOM      3  C   UNL     1     153.086 133.251 137.743  0.00  0.00    +0.000 A 
ATOM      4  C   UNL     1     152.900 132.276 136.747  0.00  0.00    +0.000 C 
ATOM      5  C   UNL     1     153.470 133.557 138.865  0.00  0.00    +0.000 A 
ATOM      6  C   UNL     1     153.279 132.588 137.859  0.00  0.00    +0.000 A 
ATOM      7  N   UNL     1     153.189 132.100 137.367  0.00  0.00    +0.000 NA
ATOM      8  C   UNL     1     153.180 133.745 138.247  0.00  0.00    +0.000 A 
ATOM      9  C   UNL     1     153.661 132.901 138.980  0.00  0.00    +0.000 A 
ATOM     10  C   UNL     1     153.569 132.413 138.484  0.00  0.00    +0.000 A 
ATOM     11  O   UNL     1     152.509 133.830 136.627  0.00  0.00    +0.000 OA
ATOM     12  O   UNL     1     152.792 134.067 137.461  0.00  0.00    +0.000 OA
ATOM     13 CL   UNL     1     153.952 132.723 139.606  0.00  0.00    +0.000 Cl
ENDROOT
BRANCH   5  14
ATOM     14  S   UNL     1     153.565 134.047 139.370  0.00  0.00    +0.000 S 
ATOM     15  O   UNL     1     152.928 133.900 139.645  0.00  0.00    +0.000 OA
ATOM     16  O   UNL     1     153.333 134.402 139.946  0.00  0.00    +0.000 OA
ATOM     17  N   UNL     1     154.163 134.426 139.390  0.00  0.00    +0.000 NA
ENDBRANCH   5  14
BRANCH   4  18
ATOM     18  C   UNL     1     152.826 131.753 136.276  0.00  0.00    +0.000 C 
ATOM     19 CL   UNL     1     152.242 131.353 136.208  0.00  0.00    +0.000 Cl
ATOM     20 CL   UNL     1     153.467 131.633 135.803  0.00  0.00    +0.000 Cl
ENDBRANCH   4  18
TORSDOF 2
ENDMDL
MODEL 16
REMARK VINA RESULT:      -7.3     48.491     48.706
REMARK  Name = 
REMARK  2 active torsions:
REMARK  status: ('A' for Active; 'I' for Inactive)
REMARK    1  A    between atoms: S_4  and  C_6
REMARK    2  A    between atoms: C_5  and  C_14
REMARK                            x       y       z     vdW  Elec       q    Type
REMARK                         _______ _______ _______ _____ _____    ______ ____
ROOT
ATOM      1  S   UNL     1     150.696 140.624 188.679  0.00  0.00    +0.000 S 
ATOM      2  N   UNL     1     150.950 139.974 188.778  0.00  0.00    +0.000 NA
ATOM      3  C   UNL     1     150.021 140.704 188.508  0.00  0.00    +0.000 A 
ATOM      4  C   UNL     1     150.539 139.412 188.708  0.00  0.00    +0.000 C 
ATOM      5  C   UNL     1     149.076 141.434 188.235  0.00  0.00    +0.000 A 
ATOM      6  C   UNL     1     149.606 140.144 188.437  0.00  0.00    +0.000 A 
ATOM      7  N   UNL     1     149.859 139.499 188.535  0.00  0.00    +0.000 NA
ATOM      8  C   UNL     1     149.759 141.358 188.407  0.00  0.00    +0.000 A 
ATOM      9  C   UNL     1     148.666 140.880 188.164  0.00  0.00    +0.000 A 
ATOM     10  C   UNL     1     148.923 140.234 188.263  0.00  0.00    +0.000 A 
ATOM     11  O   UNL     1     151.363 140.786 188.835  0.00  0.00    +0.000 OA
ATOM     12  O   UNL     1     150.665 141.337 188.632  0.00  0.00    +0.000 OA
ATOM     13 CL   UNL     1     147.981 140.968 187.990  0.00  0.00    +0.000 Cl
ENDROOT
BRANCH   5  14
ATOM     14  S   UNL     1     148.812 142.085 188.133  0.00  0.00    +0.000 S 
ATOM     15  O   UNL     1     148.607 142.117 188.812  0.00  0.00    +0.000 OA
ATOM     16  O   UNL     1     148.481 142.669 188.380  0.00  0.00    +0.000 OA
ATOM     17  N   UNL     1     148.855 142.391 187.496  0.00  0.00    +0.000 NA
ENDBRANCH   5  14
BRANCH   4  18
ATOM     18  C   UNL     1     150.756 138.744 188.798  0.00  0.00    +0.000 C 
ATOM     19 CL   UNL     1     151.163 138.387 188.336  0.00  0.00    +0.000 Cl
ATOM     20 CL   UNL     1     150.505 138.398 189.480  0.00  0.00    +0.000 Cl
ENDBRANCH   4  18
TORSDOF 2
ENDMDL
MODEL 17
REMARK VINA RESULT:      -7.3     66.269     66.711
REMARK  Name = 
REMARK  2 active torsions:
REMARK  status: ('A' for Active; 'I' for Inactive)
REMARK    1  A    between atoms: S_4  and  C_6
REMARK    2  A    between atoms: C_5  and  C_14
REMARK                            x       y       z     vdW  Elec       q    Type
REMARK                         _______ _______ _______ _____ _____    ______ ____
ROOT
ATOM      1  S   UNL     1     104.331 110.522 100.139  0.00  0.00    +0.000 S 
ATOM      2  N   UNL     1     103.977 110.002  99.821  0.00  0.00    +0.000 NA
ATOM      3  C   UNL     1     105.008 110.425 100.298  0.00  0.00    +0.000 A 
ATOM      4  C   UNL     1     104.290 109.396  99.664  0.00  0.00    +0.000 C 
ATOM      5  C   UNL     1     106.054 110.845 100.777  0.00  0.00    +0.000 A 
ATOM      6  C   UNL     1     105.324 109.821 100.141  0.00  0.00    +0.000 A 
ATOM      7  N   UNL     1     104.971 109.306  99.826  0.00  0.00    +0.000 NA
ATOM      8  C   UNL     1     105.371 110.947 100.619  0.00  0.00    +0.000 A 
ATOM      9  C   UNL     1     106.367 110.247 100.623  0.00  0.00    +0.000 A 
ATOM     10  C   UNL     1     106.010 109.732 100.306  0.00  0.00    +0.000 A 
ATOM     11  O   UNL     1     103.703 110.833 100.083  0.00  0.00    +0.000 OA
ATOM     12  O   UNL     1     104.478 111.154 100.442  0.00  0.00    +0.000 OA
ATOM     13 CL   UNL     1     107.055 110.155 100.786  0.00  0.00    +0.000 Cl
ENDROOT
BRANCH   5  14
ATOM     14  S   UNL     1     106.419 111.363 101.097  0.00  0.00    +0.000 S 
ATOM     15  O   UNL     1     106.504 111.698 100.478  0.00  0.00    +0.000 OA
ATOM     16  O   UNL     1     106.779 111.981 101.071  0.00  0.00    +0.000 OA
ATOM     17  N   UNL     1     106.532 111.339 101.796  0.00  0.00    +0.000 NA
ENDBRANCH   5  14
BRANCH   4  18
ATOM     18  C   UNL     1     103.969 108.852  99.345  0.00  0.00    +0.000 C 
ATOM     19 CL   UNL     1     103.609 108.341  99.687  0.00  0.00    +0.000 Cl
ATOM     20 CL   UNL     1     104.037 108.842  98.543  0.00  0.00    +0.000 Cl
ENDBRANCH   4  18
TORSDOF 2
ENDMDL
MODEL 18
REMARK VINA RESULT:      -7.3     52.859     53.331
REMARK  Name = 
REMARK  2 active torsions:
REMARK  status: ('A' for Active; 'I' for Inactive)
REMARK    1  A    between atoms: S_4  and  C_6
REMARK    2  A    between atoms: C_5  and  C_14
REMARK                            x       y       z     vdW  Elec       q    Type
REMARK                         _______ _______ _______ _____ _____    ______ ____
ROOT
ATOM      1  S   UNL     1     104.109 147.920 152.877  0.00  0.00    +0.000 S 
ATOM      2  N   UNL     1     104.317 148.370 152.376  0.00  0.00    +0.000 NA
ATOM      3  C   UNL     1     103.943 147.262 152.697  0.00  0.00    +0.000 A 
ATOM      4  C   UNL     1     104.359 148.170 151.707  0.00  0.00    +0.000 C 
ATOM      5  C   UNL     1     103.564 146.141 153.012  0.00  0.00    +0.000 A 
ATOM      6  C   UNL     1     103.983 147.059 152.028  0.00  0.00    +0.000 A 
ATOM      7  N   UNL     1     104.190 147.506 151.532  0.00  0.00    +0.000 NA
ATOM      8  C   UNL     1     103.732 146.804 153.199  0.00  0.00    +0.000 A 
ATOM      9  C   UNL     1     103.605 145.939 152.351  0.00  0.00    +0.000 A 
ATOM     10  C   UNL     1     103.813 146.391 151.855  0.00  0.00    +0.000 A 
ATOM     11  O   UNL     1     104.217 148.489 153.275  0.00  0.00    +0.000 OA
ATOM     12  O   UNL     1     103.935 147.657 153.519  0.00  0.00    +0.000 OA
ATOM     13 CL   UNL     1     103.434 145.270 152.174  0.00  0.00    +0.000 Cl
ENDROOT
BRANCH   5  14
ATOM     14  S   UNL     1     103.354 145.681 153.510  0.00  0.00    +0.000 S 
ATOM     15  O   UNL     1     104.021 145.460 153.601  0.00  0.00    +0.000 OA
ATOM     16  O   UNL     1     103.499 145.171 153.990  0.00  0.00    +0.000 OA
ATOM     17  N   UNL     1     102.669 145.637 153.686  0.00  0.00    +0.000 NA
ENDBRANCH   5  14
BRANCH   4  18
ATOM     18  C   UNL     1     104.564 148.591 151.176  0.00  0.00    +0.000 C 
ATOM     19 CL   UNL     1     104.122 148.994 150.789  0.00  0.00    +0.000 Cl
ATOM     20 CL   UNL     1     105.355 148.587 151.028  0.00  0.00    +0.000 Cl
ENDBRANCH   4  18
TORSDOF 2
ENDMDL
MODEL 19
REMARK VINA RESULT:      -7.1     38.803     39.318
REMARK  Name = 
REMARK  2 active torsions:
REMARK  status: ('A' for Active; 'I' for Inactive)
REMARK    1  A    between atoms: S_4  and  C_6
REMARK    2  A    between atoms: C_5  and  C_14
REMARK                            x       y       z     vdW  Elec       q    Type
REMARK                         _______ _______ _______ _____ _____    ______ ____
ROOT
ATOM      1  S   UNL     1     121.337 135.753 118.566  0.00  0.00    +0.000 S 
ATOM      2  N   UNL     1     121.961 135.949 118.303  0.00  0.00    +0.000 NA
ATOM      3  C   UNL     1     121.225 135.076 118.708  0.00  0.00    +0.000 A 
ATOM      4  C   UNL     1     122.466 135.479 118.183  0.00  0.00    +0.000 C 
ATOM      5  C   UNL     1     120.488 134.186 119.117  0.00  0.00    +0.000 A 
ATOM      6  C   UNL     1     121.727 134.602 118.590  0.00  0.00    +0.000 A 
ATOM      7  N   UNL     1     122.346 134.798 118.329  0.00  0.00    +0.000 NA
ATOM      8  C   UNL     1     120.597 134.872 118.975  0.00  0.00    +0.000 A 
ATOM      9  C   UNL     1     120.984 133.719 119.000  0.00  0.00    +0.000 A 
ATOM     10  C   UNL     1     121.604 133.918 118.737  0.00  0.00    +0.000 A 
ATOM     11  O   UNL     1     121.223 136.444 118.507  0.00  0.00    +0.000 OA
ATOM     12  O   UNL     1     120.667 135.789 118.813  0.00  0.00    +0.000 OA
ATOM     13 CL   UNL     1     120.865 133.031 119.146  0.00  0.00    +0.000 Cl
ENDROOT
BRANCH   5  14
ATOM     14  S   UNL     1     119.863 133.981 119.382  0.00  0.00    +0.000 S 
ATOM     15  O   UNL     1     120.119 134.023 120.042  0.00  0.00    +0.000 OA
ATOM     16  O   UNL     1     119.444 133.822 119.940  0.00  0.00    +0.000 OA
ATOM     17  N   UNL     1     119.322 133.839 118.948  0.00  0.00    +0.000 NA
ENDBRANCH   5  14
BRANCH   4  18
ATOM     18  C   UNL     1     123.104 135.635 117.920  0.00  0.00    +0.000 C 
ATOM     19 CL   UNL     1     123.676 135.787 118.316  0.00  0.00    +0.000 Cl
ATOM     20 CL   UNL     1     123.147 135.632 117.116  0.00  0.00    +0.000 Cl
ENDBRANCH   4  18
TORSDOF 2
ENDMDL
MODEL 20
REMARK VINA RESULT:      -7.1     62.691     63.048
REMARK  Name = 
REMARK  2 active torsions:
REMARK  status: ('A' for Active; 'I' for Inactive)
REMARK    1  A    between atoms: S_4  and  C_6
REMARK    2  A    between atoms: C_5  and  C_14
REMARK                            x       y       z     vdW  Elec       q    Type
REMARK                         _______ _______ _______ _____ _____    ______ ____
ROOT
ATOM      1  S   UNL     1      97.942 128.681 112.032  0.00  0.00    +0.000 S 
ATOM      2  N   UNL     1      97.855 129.303 111.712  0.00  0.00    +0.000 NA
ATOM      3  C   UNL     1      98.000 128.102 111.640  0.00  0.00    +0.000 A 
ATOM      4  C   UNL     1      97.826 129.349 111.015  0.00  0.00    +0.000 C 
ATOM      5  C   UNL     1      98.147 126.888 111.557  0.00  0.00    +0.000 A 
ATOM      6  C   UNL     1      97.972 128.144 110.942  0.00  0.00    +0.000 A 
ATOM      7  N   UNL     1      97.885 128.762 110.626  0.00  0.00    +0.000 NA
ATOM      8  C   UNL     1      98.089 127.471 111.957  0.00  0.00    +0.000 A 
ATOM      9  C   UNL     1      98.119 126.930 110.867  0.00  0.00    +0.000 A 
ATOM     10  C   UNL     1      98.032 127.552 110.553  0.00  0.00    +0.000 A 
ATOM     11  O   UNL     1      97.910 129.095 112.599  0.00  0.00    +0.000 OA
ATOM     12  O   UNL     1      98.019 128.191 112.548  0.00  0.00    +0.000 OA
ATOM     13 CL   UNL     1      98.179 126.338 110.474  0.00  0.00    +0.000 Cl
ENDROOT
BRANCH   5  14
ATOM     14  S   UNL     1      98.235 126.258 111.871  0.00  0.00    +0.000 S 
ATOM     15  O   UNL     1      98.940 126.331 111.842  0.00  0.00    +0.000 OA
ATOM     16  O   UNL     1      98.660 125.744 112.130  0.00  0.00    +0.000 OA
ATOM     17  N   UNL     1      97.671 125.871 112.057  0.00  0.00    +0.000 NA
ENDBRANCH   5  14
BRANCH   4  18
ATOM     18  C   UNL     1      97.739 129.954 110.657  0.00  0.00    +0.000 C 
ATOM     19 CL   UNL     1      98.265 130.409 110.503  0.00  0.00    +0.000 Cl
ATOM     20 CL   UNL     1      96.983 130.103 110.425  0.00  0.00    +0.000 Cl
ENDBRANCH   4  18
TORSDOF 2
ENDMDL
