REMARK  Name = 
REMARK  4 active torsions:
REMARK  status: ('A' for Active; 'I' for Inactive)
REMARK    1  A    between atoms: C_15  and  C_22
REMARK    2  A    between atoms: C_26  and  O_27
REMARK    3  A    between atoms: O_27  and  C_28
REMARK    4  A    between atoms: C_28  and  C_29
REMARK                            x       y       z     vdW  Elec       q    Type
REMARK                         _______ _______ _______ _____ _____    ______ ____
ROOT
ATOM      1  C   UNL     1      11.219  -4.366   0.000  0.00  0.00    +0.000 A 
ATOM      2  C   UNL     1      10.505  -3.954   0.000  0.00  0.00    +0.000 A 
ATOM      3  C   UNL     1       9.790  -4.366   0.000  0.00  0.00    +0.000 A 
ATOM      4  C   UNL     1       9.790  -5.191   0.000  0.00  0.00    +0.000 A 
ATOM      5  C   UNL     1      10.505  -5.604   0.000  0.00  0.00    +0.000 A 
ATOM      6  C   UNL     1      11.219  -5.191   0.000  0.00  0.00    +0.000 A 
ATOM      7  N   UNL     1      12.004  -5.446   0.000  0.00  0.00    +0.000 N 
ATOM      8  C   UNL     1      12.489  -4.779   0.000  0.00  0.00    +0.000 C 
ATOM      9  C   UNL     1      12.004  -4.112   0.000  0.00  0.00    +0.000 C 
ATOM     10  C   UNL     1      12.340  -3.358   0.000  0.00  0.00    +0.000 C 
ATOM     11  C   UNL     1      13.160  -3.272   0.000  0.00  0.00    +0.000 C 
ATOM     12  N   UNL     1      13.645  -3.939   0.000  0.00  0.00    +0.000 NA
ATOM     13  C   UNL     1      13.309  -4.693   0.000  0.00  0.00    +0.000 C 
ATOM     14  C   UNL     1      14.465  -3.853   0.000  0.00  0.00    +0.000 C 
ATOM     15  C   UNL     1      14.950  -4.520   0.000  0.00  0.00    +0.000 C 
ATOM     16  C   UNL     1      14.615  -5.274   0.000  0.00  0.00    +0.000 C 
ATOM     17  C   UNL     1      13.794  -5.360   0.000  0.00  0.00    +0.000 C 
ATOM     18  C   UNL     1      12.259  -6.231   0.000  0.00  0.00    +0.000 C 
ATOM     19  O   UNL     1      14.801  -3.099   0.000  0.00  0.00    +0.000 OA
ATOM     20  C   UNL     1      13.572  -2.557   0.000  0.00  0.00    +0.000 C 
ATOM     21  C   UNL     1      11.591  -3.397   0.000  0.00  0.00    +0.000 C 
ENDROOT
BRANCH  15  22
ATOM     22  C   UNL     1      15.771  -4.434   0.000  0.00  0.00    +0.000 C 
ATOM     23  C   UNL     1      16.256  -5.101   0.000  0.00  0.00    +0.000 C 
ENDBRANCH  15  22
BRANCH  21  24
ATOM     24  O   UNL     1      10.809  -3.135   0.000  0.00  0.00    +0.000 OA
BRANCH  24  25
ATOM     25  C   UNL     1      10.645  -2.327   0.000  0.00  0.00    +0.000 C 
ATOM     26  O   UNL     1      11.263  -1.780   0.000  0.00  0.00    +0.000 OA
BRANCH  25  27
ATOM     27  C   UNL     1       9.863  -2.065   0.000  0.00  0.00    +0.000 C 
ATOM     28 CL   UNL     1       9.691  -1.258   0.000  0.00  0.00    +0.000 Cl
ENDBRANCH  25  27
ENDBRANCH  24  25
ENDBRANCH  21  24
TORSDOF 4
