
     RDKit          2D

 19 20  0  0  0  0  0  0  0  0999 V2000
   -1.8833   -0.8792    0.0000 C   0  0  0  0  0  0  0  0  0  0  0  0
   -2.9000   -2.2375    0.0000 N   0  0  0  0  0  0  0  0  0  0  0  0
   -1.8833   -1.9375    0.0000 C   0  0  0  0  0  0  0  0  0  0  0  0
   -2.8958   -0.5167    0.0000 C   0  0  0  0  0  0  0  0  0  0  0  0
   -3.4958   -1.3917    0.0000 C   0  0  0  0  0  0  0  0  0  0  0  0
   -1.0083   -0.3792    0.0000 C   0  0  0  0  0  0  0  0  0  0  0  0
   -1.0000    0.6708    0.0000 O   0  0  0  0  0  0  0  0  0  0  0  0
    2.5167    0.8833    0.0000 N   0  0  0  0  0  0  0  0  0  0  0  0
    0.7500    0.8125    0.0000 C   0  0  0  0  0  0  0  0  0  0  0  0
   -0.1708    1.2458    0.0000 C   0  0  0  0  0  0  0  0  0  0  0  0
    1.6042    1.3583    0.0000 C   0  0  0  0  0  0  0  0  0  0  0  0
   -0.9833   -2.4417    0.0000 C   0  0  0  0  0  0  0  0  0  0  0  0
    0.7542   -0.0667    0.0000 O   0  0  0  0  0  0  0  0  0  0  0  0
   -4.3458   -1.3917    0.0000 C   0  0  0  0  0  0  0  0  0  0  0  0
   -0.1208   -1.9667    0.0000 C   0  0  0  0  0  0  0  0  0  0  0  0
    3.4250    1.4833    0.0000 C   0  0  0  0  0  0  0  0  0  0  0  0
   -0.1208   -0.8917    0.0000 C   0  0  0  0  0  0  0  0  0  0  0  0
    4.3417    1.0333    0.0000 C   0  0  0  0  0  0  0  0  0  0  0  0
    3.3417    2.4875    0.0000 C   0  0  0  0  0  0  0  0  0  0  0  0
  2  3  1  0
  3  1  2  0
  4  1  1  0
  5  4  2  0
  6  1  1  0
  7  6  1  0
  8 11  1  0
  9 10  1  0
 10  7  1  0
 11  9  1  0
 12  3  1  0
 13  9  1  0
 14  5  1  0
 15 17  1  0
 16  8  1  0
 17  6  2  0
 18 16  1  0
 19 16  1  0
  2  5  1  0
 12 15  2  0
M  END


> <chembl_id>
CHEMBL65717

> <chembl_pref_name>
MEPINDOLOL
