MODEL 1
REMARK VINA RESULT:      -7.4      0.000      0.000
REMARK  Name = 
REMARK  9 active torsions:
REMARK  status: ('A' for Active; 'I' for Inactive)
REMARK    1  A    between atoms: N_1  and  C_9
REMARK    2  A    between atoms: C_3  and  O_11
REMARK    3  A    between atoms: C_4  and  O_12
REMARK    4  A    between atoms: C_9  and  C_10
REMARK    5  A    between atoms: C_10  and  C_17
REMARK    6  A    between atoms: O_11  and  C_17
REMARK    7  A    between atoms: O_12  and  C_18
REMARK    8  A    between atoms: C_18  and  C_19
REMARK    9  A    between atoms: C_19  and  C_20
REMARK                            x       y       z     vdW  Elec       q    Type
REMARK                         _______ _______ _______ _____ _____    ______ ____
ROOT
ATOM      1  C   UNL     1     153.704 132.611 139.677  0.00  0.00    +0.000 A 
ATOM      2  C   UNL     1     153.658 132.028 140.970  0.00  0.00    +0.000 A 
ATOM      3  C   UNL     1     153.711 132.740 140.907  0.00  0.00    +0.000 A 
ATOM      4  C   UNL     1     153.628 131.609 140.398  0.00  0.00    +0.000 A 
ATOM      5  C   UNL     1     153.733 133.023 140.254  0.00  0.00    +0.000 A 
ATOM      6  C   UNL     1     153.651 131.905 139.751  0.00  0.00    +0.000 A 
ENDROOT
BRANCH   1   7
ATOM      7  O   UNL     1     153.726 132.895 139.035  0.00  0.00    +0.000 OA
BRANCH   7   8
ATOM      8  C   UNL     1     153.135 133.153 138.737  0.00  0.00    +0.000 C 
BRANCH   8   9
ATOM      9  C   UNL     1     153.136 133.352 138.058  0.00  0.00    +0.000 C 
BRANCH   9  10
ATOM     10  C   UNL     1     152.598 133.701 137.782  0.00  0.00    +0.000 C 
BRANCH  10  11
ATOM     11  N   UNL     1     152.551 133.815 137.087  0.00  0.00    +0.000 NA
ATOM     12  O   UNL     1     152.456 134.047 135.684  0.00  0.00    +0.000 OA
ATOM     13  C   UNL     1     152.114 133.430 136.690  0.00  0.00    +0.000 C 
ATOM     14  C   UNL     1     152.937 134.313 136.783  0.00  0.00    +0.000 C 
ATOM     15  C   UNL     1     152.068 133.548 135.984  0.00  0.00    +0.000 C 
ATOM     16  C   UNL     1     152.895 134.435 136.079  0.00  0.00    +0.000 C 
ENDBRANCH  10  11
ENDBRANCH   9  10
ENDBRANCH   8   9
ENDBRANCH   7   8
ENDBRANCH   1   7
BRANCH   2  17
ATOM     17  O   UNL     1     153.635 131.738 141.629  0.00  0.00    +0.000 OA
BRANCH  17  18
ATOM     18  C   UNL     1     153.014 131.566 141.904  0.00  0.00    +0.000 C 
BRANCH  18  19
ATOM     19  C   UNL     1     152.991 131.212 142.529  0.00  0.00    +0.000 C 
BRANCH  19  20
ATOM     20  C   UNL     1     152.418 131.239 142.938  0.00  0.00    +0.000 C 
ATOM     21  C   UNL     1     152.267 130.700 143.379  0.00  0.00    +0.000 C 
ENDBRANCH  19  20
ENDBRANCH  18  19
ENDBRANCH  17  18
ENDBRANCH   2  17
TORSDOF 9
ENDMDL
MODEL 2
REMARK VINA RESULT:      -7.4     70.663     72.427
REMARK  Name = 
REMARK  9 active torsions:
REMARK  status: ('A' for Active; 'I' for Inactive)
REMARK    1  A    between atoms: N_1  and  C_9
REMARK    2  A    between atoms: C_3  and  O_11
REMARK    3  A    between atoms: C_4  and  O_12
REMARK    4  A    between atoms: C_9  and  C_10
REMARK    5  A    between atoms: C_10  and  C_17
REMARK    6  A    between atoms: O_11  and  C_17
REMARK    7  A    between atoms: O_12  and  C_18
REMARK    8  A    between atoms: C_18  and  C_19
REMARK    9  A    between atoms: C_19  and  C_20
REMARK                            x       y       z     vdW  Elec       q    Type
REMARK                         _______ _______ _______ _____ _____    ______ ____
ROOT
ATOM      1  C   UNL     1     106.156 123.847 193.727  0.00  0.00    +0.000 A 
ATOM      2  C   UNL     1     105.566 124.750 194.649  0.00  0.00    +0.000 A 
ATOM      3  C   UNL     1     106.195 124.445 194.809  0.00  0.00    +0.000 A 
ATOM      4  C   UNL     1     105.233 124.608 194.038  0.00  0.00    +0.000 A 
ATOM      5  C   UNL     1     106.482 123.994 194.340  0.00  0.00    +0.000 A 
ATOM      6  C   UNL     1     105.532 124.155 193.579  0.00  0.00    +0.000 A 
ENDROOT
BRANCH   1   7
ATOM      7  O   UNL     1     106.444 123.400 193.268  0.00  0.00    +0.000 OA
BRANCH   7   8
ATOM      8  C   UNL     1     106.247 122.718 193.261  0.00  0.00    +0.000 C 
BRANCH   8   9
ATOM      9  C   UNL     1     106.562 122.262 192.820  0.00  0.00    +0.000 C 
BRANCH   9  10
ATOM     10  C   UNL     1     106.360 121.593 192.787  0.00  0.00    +0.000 C 
BRANCH  10  11
ATOM     11  N   UNL     1     106.681 121.133 192.359  0.00  0.00    +0.000 NA
ATOM     12  O   UNL     1     107.329 120.204 191.494  0.00  0.00    +0.000 OA
ATOM     13  C   UNL     1     107.228 120.751 192.589  0.00  0.00    +0.000 C 
ATOM     14  C   UNL     1     106.461 121.049 191.700  0.00  0.00    +0.000 C 
ATOM     15  C   UNL     1     107.552 120.285 192.152  0.00  0.00    +0.000 C 
ATOM     16  C   UNL     1     106.781 120.585 191.260  0.00  0.00    +0.000 C 
ENDBRANCH  10  11
ENDBRANCH   9  10
ENDBRANCH   8   9
ENDBRANCH   7   8
ENDBRANCH   1   7
BRANCH   2  17
ATOM     17  O   UNL     1     105.271 125.208 195.121  0.00  0.00    +0.000 OA
BRANCH  17  18
ATOM     18  C   UNL     1     105.437 125.888 195.084  0.00  0.00    +0.000 C 
BRANCH  18  19
ATOM     19  C   UNL     1     105.168 126.343 195.571  0.00  0.00    +0.000 C 
BRANCH  19  20
ATOM     20  C   UNL     1     105.236 127.039 195.490  0.00  0.00    +0.000 C 
ATOM     21  C   UNL     1     105.137 127.476 196.045  0.00  0.00    +0.000 C 
ENDBRANCH  19  20
ENDBRANCH  18  19
ENDBRANCH  17  18
ENDBRANCH   2  17
TORSDOF 9
ENDMDL
MODEL 3
REMARK VINA RESULT:      -7.0     52.831     55.044
REMARK  Name = 
REMARK  9 active torsions:
REMARK  status: ('A' for Active; 'I' for Inactive)
REMARK    1  A    between atoms: N_1  and  C_9
REMARK    2  A    between atoms: C_3  and  O_11
REMARK    3  A    between atoms: C_4  and  O_12
REMARK    4  A    between atoms: C_9  and  C_10
REMARK    5  A    between atoms: C_10  and  C_17
REMARK    6  A    between atoms: O_11  and  C_17
REMARK    7  A    between atoms: O_12  and  C_18
REMARK    8  A    between atoms: C_18  and  C_19
REMARK    9  A    between atoms: C_19  and  C_20
REMARK                            x       y       z     vdW  Elec       q    Type
REMARK                         _______ _______ _______ _____ _____    ______ ____
ROOT
ATOM      1  C   UNL     1     134.571 148.947  90.315  0.00  0.00    +0.000 A 
ATOM      2  C   UNL     1     135.072 149.530  91.508  0.00  0.00    +0.000 A 
ATOM      3  C   UNL     1     134.466 149.783  91.221  0.00  0.00    +0.000 A 
ATOM      4  C   UNL     1     135.427 148.994  91.207  0.00  0.00    +0.000 A 
ATOM      5  C   UNL     1     134.223 149.484  90.622  0.00  0.00    +0.000 A 
ATOM      6  C   UNL     1     135.172 148.704  90.609  0.00  0.00    +0.000 A 
ENDROOT
BRANCH   1   7
ATOM      7  O   UNL     1     134.327 148.655  89.725  0.00  0.00    +0.000 OA
BRANCH   7   8
ATOM      8  C   UNL     1     133.913 148.079  89.755  0.00  0.00    +0.000 C 
BRANCH   8   9
ATOM      9  C   UNL     1     133.641 147.805  89.162  0.00  0.00    +0.000 C 
BRANCH   9  10
ATOM     10  C   UNL     1     133.272 147.212  89.174  0.00  0.00    +0.000 C 
BRANCH  10  11
ATOM     11  N   UNL     1     132.975 146.951  88.589  0.00  0.00    +0.000 NA
ATOM     12  O   UNL     1     132.375 146.425  87.408  0.00  0.00    +0.000 OA
ATOM     13  C   UNL     1     133.357 146.573  88.132  0.00  0.00    +0.000 C 
ATOM     14  C   UNL     1     132.298 147.065  88.454  0.00  0.00    +0.000 C 
ATOM     15  C   UNL     1     133.053 146.310  87.538  0.00  0.00    +0.000 C 
ATOM     16  C   UNL     1     131.990 146.804  87.864  0.00  0.00    +0.000 C 
ENDBRANCH  10  11
ENDBRANCH   9  10
ENDBRANCH   8   9
ENDBRANCH   7   8
ENDBRANCH   1   7
BRANCH   2  17
ATOM     17  O   UNL     1     135.322 149.830  92.114  0.00  0.00    +0.000 OA
BRANCH  17  18
ATOM     18  C   UNL     1     135.730 150.399  92.068  0.00  0.00    +0.000 C 
BRANCH  18  19
ATOM     19  C   UNL     1     135.954 150.719  92.671  0.00  0.00    +0.000 C 
BRANCH  19  20
ATOM     20  C   UNL     1     136.417 151.250  92.646  0.00  0.00    +0.000 C 
ATOM     21  C   UNL     1     136.603 151.592  93.244  0.00  0.00    +0.000 C 
ENDBRANCH  19  20
ENDBRANCH  18  19
ENDBRANCH  17  18
ENDBRANCH   2  17
TORSDOF 9
ENDMDL
MODEL 4
REMARK VINA RESULT:      -6.9     51.861     53.962
REMARK  Name = 
REMARK  9 active torsions:
REMARK  status: ('A' for Active; 'I' for Inactive)
REMARK    1  A    between atoms: N_1  and  C_9
REMARK    2  A    between atoms: C_3  and  O_11
REMARK    3  A    between atoms: C_4  and  O_12
REMARK    4  A    between atoms: C_9  and  C_10
REMARK    5  A    between atoms: C_10  and  C_17
REMARK    6  A    between atoms: O_11  and  C_17
REMARK    7  A    between atoms: O_12  and  C_18
REMARK    8  A    between atoms: C_18  and  C_19
REMARK    9  A    between atoms: C_19  and  C_20
REMARK                            x       y       z     vdW  Elec       q    Type
REMARK                         _______ _______ _______ _____ _____    ______ ____
ROOT
ATOM      1  C   UNL     1     135.124 149.592  91.483  0.00  0.00    +0.000 A 
ATOM      2  C   UNL     1     134.537 148.933  90.371  0.00  0.00    +0.000 A 
ATOM      3  C   UNL     1     135.172 148.709  90.618  0.00  0.00    +0.000 A 
ATOM      4  C   UNL     1     134.197 149.478  90.672  0.00  0.00    +0.000 A 
ATOM      5  C   UNL     1     135.458 149.047  91.176  0.00  0.00    +0.000 A 
ATOM      6  C   UNL     1     134.494 149.806  91.229  0.00  0.00    +0.000 A 
ENDROOT
BRANCH   1   7
ATOM      7  O   UNL     1     135.410 149.922  92.033  0.00  0.00    +0.000 OA
BRANCH   7   8
ATOM      8  C   UNL     1     135.745 150.542  91.944  0.00  0.00    +0.000 C 
BRANCH   8   9
ATOM      9  C   UNL     1     136.094 150.838  92.484  0.00  0.00    +0.000 C 
BRANCH   9  10
ATOM     10  C   UNL     1     136.345 151.488  92.440  0.00  0.00    +0.000 C 
BRANCH  10  11
ATOM     11  N   UNL     1     136.773 151.753  92.935  0.00  0.00    +0.000 NA
ATOM     12  O   UNL     1     137.637 152.286  93.935  0.00  0.00    +0.000 OA
ATOM     13  C   UNL     1     136.569 151.774  93.610  0.00  0.00    +0.000 C 
ATOM     14  C   UNL     1     137.406 151.997  92.763  0.00  0.00    +0.000 C 
ATOM     15  C   UNL     1     137.005 152.043  94.111  0.00  0.00    +0.000 C 
ATOM     16  C   UNL     1     137.845 152.266  93.259  0.00  0.00    +0.000 C 
ENDBRANCH  10  11
ENDBRANCH   9  10
ENDBRANCH   8   9
ENDBRANCH   7   8
ENDBRANCH   1   7
BRANCH   2  17
ATOM     17  O   UNL     1     134.245 148.595  89.806  0.00  0.00    +0.000 OA
BRANCH  17  18
ATOM     18  C   UNL     1     133.811 148.056  89.920  0.00  0.00    +0.000 C 
BRANCH  18  19
ATOM     19  C   UNL     1     133.529 147.707  89.359  0.00  0.00    +0.000 C 
BRANCH  19  20
ATOM     20  C   UNL     1     133.056 147.194  89.454  0.00  0.00    +0.000 C 
ATOM     21  C   UNL     1     132.806 146.828  88.895  0.00  0.00    +0.000 C 
ENDBRANCH  19  20
ENDBRANCH  18  19
ENDBRANCH  17  18
ENDBRANCH   2  17
TORSDOF 9
ENDMDL
MODEL 5
REMARK VINA RESULT:      -6.9     48.140     50.299
REMARK  Name = 
REMARK  9 active torsions:
REMARK  status: ('A' for Active; 'I' for Inactive)
REMARK    1  A    between atoms: N_1  and  C_9
REMARK    2  A    between atoms: C_3  and  O_11
REMARK    3  A    between atoms: C_4  and  O_12
REMARK    4  A    between atoms: C_9  and  C_10
REMARK    5  A    between atoms: C_10  and  C_17
REMARK    6  A    between atoms: O_11  and  C_17
REMARK    7  A    between atoms: O_12  and  C_18
REMARK    8  A    between atoms: C_18  and  C_19
REMARK    9  A    between atoms: C_19  and  C_20
REMARK                            x       y       z     vdW  Elec       q    Type
REMARK                         _______ _______ _______ _____ _____    ______ ____
ROOT
ATOM      1  C   UNL     1     116.533 113.046 111.026  0.00  0.00    +0.000 A 
ATOM      2  C   UNL     1     117.925 113.112 110.756  0.00  0.00    +0.000 A 
ATOM      3  C   UNL     1     117.471 112.944 110.226  0.00  0.00    +0.000 A 
ATOM      4  C   UNL     1     117.691 113.246 111.412  0.00  0.00    +0.000 A 
ATOM      5  C   UNL     1     116.775 112.914 110.373  0.00  0.00    +0.000 A 
ATOM      6  C   UNL     1     116.993 113.212 111.544  0.00  0.00    +0.000 A 
ENDROOT
BRANCH   1   7
ATOM      7  O   UNL     1     115.845 113.015 111.166  0.00  0.00    +0.000 OA
BRANCH   7   8
ATOM      8  C   UNL     1     115.619 112.811 111.808  0.00  0.00    +0.000 C 
BRANCH   8   9
ATOM      9  C   UNL     1     114.926 112.777 111.946  0.00  0.00    +0.000 C 
BRANCH   9  10
ATOM     10  C   UNL     1     114.691 112.592 112.577  0.00  0.00    +0.000 C 
BRANCH  10  11
ATOM     11  N   UNL     1     114.002 112.587 112.727  0.00  0.00    +0.000 NA
ATOM     12  O   UNL     1     112.609 112.578 113.031  0.00  0.00    +0.000 OA
ATOM     13  C   UNL     1     113.605 112.025 112.571  0.00  0.00    +0.000 C 
ATOM     14  C   UNL     1     113.702 113.140 113.034  0.00  0.00    +0.000 C 
ATOM     15  C   UNL     1     112.905 112.023 112.724  0.00  0.00    +0.000 C 
ATOM     16  C   UNL     1     113.004 113.143 113.189  0.00  0.00    +0.000 C 
ENDBRANCH  10  11
ENDBRANCH   9  10
ENDBRANCH   8   9
ENDBRANCH   7   8
ENDBRANCH   1   7
BRANCH   2  17
ATOM     17  O   UNL     1     118.630 113.143 110.612  0.00  0.00    +0.000 OA
BRANCH  17  18
ATOM     18  C   UNL     1     119.068 112.728 110.968  0.00  0.00    +0.000 C 
BRANCH  18  19
ATOM     19  C   UNL     1     119.772 112.755 110.825  0.00  0.00    +0.000 C 
BRANCH  19  20
ATOM     20  C   UNL     1     120.225 112.334 111.162  0.00  0.00    +0.000 C 
ATOM     21  C   UNL     1     120.916 112.335 110.985  0.00  0.00    +0.000 C 
ENDBRANCH  19  20
ENDBRANCH  18  19
ENDBRANCH  17  18
ENDBRANCH   2  17
TORSDOF 9
ENDMDL
MODEL 6
REMARK VINA RESULT:      -6.9     34.981     37.514
REMARK  Name = 
REMARK  9 active torsions:
REMARK  status: ('A' for Active; 'I' for Inactive)
REMARK    1  A    between atoms: N_1  and  C_9
REMARK    2  A    between atoms: C_3  and  O_11
REMARK    3  A    between atoms: C_4  and  O_12
REMARK    4  A    between atoms: C_9  and  C_10
REMARK    5  A    between atoms: C_10  and  C_17
REMARK    6  A    between atoms: O_11  and  C_17
REMARK    7  A    between atoms: O_12  and  C_18
REMARK    8  A    between atoms: C_18  and  C_19
REMARK    9  A    between atoms: C_19  and  C_20
REMARK                            x       y       z     vdW  Elec       q    Type
REMARK                         _______ _______ _______ _____ _____    ______ ____
ROOT
ATOM      1  C   UNL     1     122.371 132.668 118.276  0.00  0.00    +0.000 A 
ATOM      2  C   UNL     1     123.737 132.526 117.920  0.00  0.00    +0.000 A 
ATOM      3  C   UNL     1     123.499 132.227 118.527  0.00  0.00    +0.000 A 
ATOM      4  C   UNL     1     123.303 132.892 117.494  0.00  0.00    +0.000 A 
ATOM      5  C   UNL     1     122.811 132.304 118.696  0.00  0.00    +0.000 A 
ATOM      6  C   UNL     1     122.619 132.961 117.676  0.00  0.00    +0.000 A 
ENDROOT
BRANCH   1   7
ATOM      7  O   UNL     1     121.693 132.742 118.447  0.00  0.00    +0.000 OA
BRANCH   7   8
ATOM      8  C   UNL     1     121.468 133.333 118.770  0.00  0.00    +0.000 C 
BRANCH   8   9
ATOM      9  C   UNL     1     120.776 133.444 118.866  0.00  0.00    +0.000 C 
BRANCH   9  10
ATOM     10  C   UNL     1     120.545 133.980 119.250  0.00  0.00    +0.000 C 
BRANCH  10  11
ATOM     11  N   UNL     1     119.864 134.164 119.255  0.00  0.00    +0.000 NA
ATOM     12  O   UNL     1     118.488 134.535 119.262  0.00  0.00    +0.000 OA
ATOM     13  C   UNL     1     119.405 133.828 119.672  0.00  0.00    +0.000 C 
ATOM     14  C   UNL     1     119.634 134.682 118.844  0.00  0.00    +0.000 C 
ATOM     15  C   UNL     1     118.714 134.016 119.674  0.00  0.00    +0.000 C 
ATOM     16  C   UNL     1     118.945 134.874 118.843  0.00  0.00    +0.000 C 
ENDBRANCH  10  11
ENDBRANCH   9  10
ENDBRANCH   8   9
ENDBRANCH   7   8
ENDBRANCH   1   7
BRANCH   2  17
ATOM     17  O   UNL     1     124.432 132.450 117.745  0.00  0.00    +0.000 OA
BRANCH  17  18
ATOM     18  C   UNL     1     124.840 133.020 117.718  0.00  0.00    +0.000 C 
BRANCH  18  19
ATOM     19  C   UNL     1     125.531 132.948 117.535  0.00  0.00    +0.000 C 
BRANCH  19  20
ATOM     20  C   UNL     1     125.953 133.511 117.494  0.00  0.00    +0.000 C 
ATOM     21  C   UNL     1     126.621 133.442 117.254  0.00  0.00    +0.000 C 
ENDBRANCH  19  20
ENDBRANCH  18  19
ENDBRANCH  17  18
ENDBRANCH   2  17
TORSDOF 9
ENDMDL
MODEL 7
REMARK VINA RESULT:      -6.8     59.504     62.044
REMARK  Name = 
REMARK  9 active torsions:
REMARK  status: ('A' for Active; 'I' for Inactive)
REMARK    1  A    between atoms: N_1  and  C_9
REMARK    2  A    between atoms: C_3  and  O_11
REMARK    3  A    between atoms: C_4  and  O_12
REMARK    4  A    between atoms: C_9  and  C_10
REMARK    5  A    between atoms: C_10  and  C_17
REMARK    6  A    between atoms: O_11  and  C_17
REMARK    7  A    between atoms: O_12  and  C_18
REMARK    8  A    between atoms: C_18  and  C_19
REMARK    9  A    between atoms: C_19  and  C_20
REMARK                            x       y       z     vdW  Elec       q    Type
REMARK                         _______ _______ _______ _____ _____    ______ ____
ROOT
ATOM      1  C   UNL     1     103.502 132.304 175.590  0.00  0.00    +0.000 A 
ATOM      2  C   UNL     1     104.849 132.415 175.159  0.00  0.00    +0.000 A 
ATOM      3  C   UNL     1     104.461 131.848 174.956  0.00  0.00    +0.000 A 
ATOM      4  C   UNL     1     104.573 132.923 175.571  0.00  0.00    +0.000 A 
ATOM      5  C   UNL     1     103.786 131.802 175.178  0.00  0.00    +0.000 A 
ATOM      6  C   UNL     1     103.897 132.863 175.785  0.00  0.00    +0.000 A 
ENDROOT
BRANCH   1   7
ATOM      7  O   UNL     1     102.835 132.254 175.806  0.00  0.00    +0.000 OA
BRANCH   7   8
ATOM      8  C   UNL     1     102.687 131.989 176.449  0.00  0.00    +0.000 C 
BRANCH   8   9
ATOM      9  C   UNL     1     102.020 131.986 176.686  0.00  0.00    +0.000 C 
BRANCH   9  10
ATOM     10  C   UNL     1     101.842 131.629 177.259  0.00  0.00    +0.000 C 
BRANCH  10  11
ATOM     11  N   UNL     1     101.188 131.660 177.524  0.00  0.00    +0.000 NA
ATOM     12  O   UNL     1      99.869 131.724 178.061  0.00  0.00    +0.000 OA
ATOM     13  C   UNL     1     100.660 131.310 177.216  0.00  0.00    +0.000 C 
ATOM     14  C   UNL     1     101.057 132.039 178.098  0.00  0.00    +0.000 C 
ATOM     15  C   UNL     1      99.997 131.344 177.487  0.00  0.00    +0.000 C 
ATOM     16  C   UNL     1     100.397 132.076 178.373  0.00  0.00    +0.000 C 
ENDBRANCH  10  11
ENDBRANCH   9  10
ENDBRANCH   8   9
ENDBRANCH   7   8
ENDBRANCH   1   7
BRANCH   2  17
ATOM     17  O   UNL     1     105.533 132.466 174.937  0.00  0.00    +0.000 OA
BRANCH  17  18
ATOM     18  C   UNL     1     106.049 132.378 175.402  0.00  0.00    +0.000 C 
BRANCH  18  19
ATOM     19  C   UNL     1     106.732 132.435 175.186  0.00  0.00    +0.000 C 
BRANCH  19  20
ATOM     20  C   UNL     1     107.258 132.464 175.653  0.00  0.00    +0.000 C 
ATOM     21  C   UNL     1     107.932 132.530 175.431  0.00  0.00    +0.000 C 
ENDBRANCH  19  20
ENDBRANCH  18  19
ENDBRANCH  17  18
ENDBRANCH   2  17
TORSDOF 9
ENDMDL
MODEL 8
REMARK VINA RESULT:      -6.7     54.770     55.592
REMARK  Name = 
REMARK  9 active torsions:
REMARK  status: ('A' for Active; 'I' for Inactive)
REMARK    1  A    between atoms: N_1  and  C_9
REMARK    2  A    between atoms: C_3  and  O_11
REMARK    3  A    between atoms: C_4  and  O_12
REMARK    4  A    between atoms: C_9  and  C_10
REMARK    5  A    between atoms: C_10  and  C_17
REMARK    6  A    between atoms: O_11  and  C_17
REMARK    7  A    between atoms: O_12  and  C_18
REMARK    8  A    between atoms: C_18  and  C_19
REMARK    9  A    between atoms: C_19  and  C_20
REMARK                            x       y       z     vdW  Elec       q    Type
REMARK                         _______ _______ _______ _____ _____    ______ ____
ROOT
ATOM      1  C   UNL     1     134.025 150.103  90.823  0.00  0.00    +0.000 A 
ATOM      2  C   UNL     1     133.974 148.821  90.216  0.00  0.00    +0.000 A 
ATOM      3  C   UNL     1     134.584 149.042  90.522  0.00  0.00    +0.000 A 
ATOM      4  C   UNL     1     133.395 149.232  90.211  0.00  0.00    +0.000 A 
ATOM      5  C   UNL     1     134.599 149.687  90.824  0.00  0.00    +0.000 A 
ATOM      6  C   UNL     1     133.424 149.874  90.516  0.00  0.00    +0.000 A 
ENDROOT
BRANCH   1   7
ATOM      7  O   UNL     1     134.044 150.739  91.122  0.00  0.00    +0.000 OA
BRANCH   7   8
ATOM      8  C   UNL     1     134.175 151.315  90.728  0.00  0.00    +0.000 C 
BRANCH   8   9
ATOM      9  C   UNL     1     134.183 151.956  91.029  0.00  0.00    +0.000 C 
BRANCH   9  10
ATOM     10  C   UNL     1     134.307 152.531  90.652  0.00  0.00    +0.000 C 
BRANCH  10  11
ATOM     11  N   UNL     1     134.305 153.172  90.946  0.00  0.00    +0.000 NA
ATOM     12  O   UNL     1     134.301 154.467  91.542  0.00  0.00    +0.000 OA
ATOM     13  C   UNL     1     133.712 153.554  90.967  0.00  0.00    +0.000 C 
ATOM     14  C   UNL     1     134.891 153.437  91.222  0.00  0.00    +0.000 C 
ATOM     15  C   UNL     1     133.713 154.206  91.267  0.00  0.00    +0.000 C 
ATOM     16  C   UNL     1     134.897 154.087  91.522  0.00  0.00    +0.000 C 
ENDBRANCH  10  11
ENDBRANCH   9  10
ENDBRANCH   8   9
ENDBRANCH   7   8
ENDBRANCH   1   7
BRANCH   2  17
ATOM     17  O   UNL     1     133.955 148.170  89.910  0.00  0.00    +0.000 OA
BRANCH  17  18
ATOM     18  C   UNL     1     134.025 148.119  89.214  0.00  0.00    +0.000 C 
BRANCH  18  19
ATOM     19  C   UNL     1     133.978 147.473  88.902  0.00  0.00    +0.000 C 
BRANCH  19  20
ATOM     20  C   UNL     1     134.082 147.399  88.209  0.00  0.00    +0.000 C 
ATOM     21  C   UNL     1     133.987 146.764  87.898  0.00  0.00    +0.000 C 
ENDBRANCH  19  20
ENDBRANCH  18  19
ENDBRANCH  17  18
ENDBRANCH   2  17
TORSDOF 9
ENDMDL
MODEL 9
REMARK VINA RESULT:      -6.7     58.734     62.043
REMARK  Name = 
REMARK  9 active torsions:
REMARK  status: ('A' for Active; 'I' for Inactive)
REMARK    1  A    between atoms: N_1  and  C_9
REMARK    2  A    between atoms: C_3  and  O_11
REMARK    3  A    between atoms: C_4  and  O_12
REMARK    4  A    between atoms: C_9  and  C_10
REMARK    5  A    between atoms: C_10  and  C_17
REMARK    6  A    between atoms: O_11  and  C_17
REMARK    7  A    between atoms: O_12  and  C_18
REMARK    8  A    between atoms: C_18  and  C_19
REMARK    9  A    between atoms: C_19  and  C_20
REMARK                            x       y       z     vdW  Elec       q    Type
REMARK                         _______ _______ _______ _____ _____    ______ ____
ROOT
ATOM      1  C   UNL     1     133.763 154.072  84.538  0.00  0.00    +0.000 A 
ATOM      2  C   UNL     1     133.796 153.155  85.621  0.00  0.00    +0.000 A 
ATOM      3  C   UNL     1     133.746 152.906  84.950  0.00  0.00    +0.000 A 
ATOM      4  C   UNL     1     133.830 153.851  85.753  0.00  0.00    +0.000 A 
ATOM      5  C   UNL     1     133.730 153.374  84.414  0.00  0.00    +0.000 A 
ATOM      6  C   UNL     1     133.813 154.308  85.208  0.00  0.00    +0.000 A 
ENDROOT
BRANCH   1   7
ATOM      7  O   UNL     1     133.747 154.530  84.006  0.00  0.00    +0.000 OA
BRANCH   7   8
ATOM      8  C   UNL     1     134.330 154.895  83.831  0.00  0.00    +0.000 C 
BRANCH   8   9
ATOM      9  C   UNL     1     134.300 155.394  83.329  0.00  0.00    +0.000 C 
BRANCH   9  10
ATOM     10  C   UNL     1     134.881 155.694  83.082  0.00  0.00    +0.000 C 
BRANCH  10  11
ATOM     11  N   UNL     1     134.852 156.232  82.626  0.00  0.00    +0.000 NA
ATOM     12  O   UNL     1     134.793 157.318  81.705  0.00  0.00    +0.000 OA
ATOM     13  C   UNL     1     134.861 156.898  82.858  0.00  0.00    +0.000 C 
ATOM     14  C   UNL     1     134.813 156.112  81.938  0.00  0.00    +0.000 C 
ATOM     15  C   UNL     1     134.831 157.443  82.393  0.00  0.00    +0.000 C 
ATOM     16  C   UNL     1     134.784 156.652  81.470  0.00  0.00    +0.000 C 
ENDBRANCH  10  11
ENDBRANCH   9  10
ENDBRANCH   8   9
ENDBRANCH   7   8
ENDBRANCH   1   7
BRANCH   2  17
ATOM     17  O   UNL     1     133.812 152.684  86.166  0.00  0.00    +0.000 OA
BRANCH  17  18
ATOM     18  C   UNL     1     133.338 152.742  86.680  0.00  0.00    +0.000 C 
BRANCH  18  19
ATOM     19  C   UNL     1     133.317 152.243  87.196  0.00  0.00    +0.000 C 
BRANCH  19  20
ATOM     20  C   UNL     1     132.940 152.346  87.782  0.00  0.00    +0.000 C 
ATOM     21  C   UNL     1     132.903 151.836  88.279  0.00  0.00    +0.000 C 
ENDBRANCH  19  20
ENDBRANCH  18  19
ENDBRANCH  17  18
ENDBRANCH   2  17
TORSDOF 9
ENDMDL
MODEL 10
REMARK VINA RESULT:      -6.7     53.199     56.134
REMARK  Name = 
REMARK  9 active torsions:
REMARK  status: ('A' for Active; 'I' for Inactive)
REMARK    1  A    between atoms: N_1  and  C_9
REMARK    2  A    between atoms: C_3  and  O_11
REMARK    3  A    between atoms: C_4  and  O_12
REMARK    4  A    between atoms: C_9  and  C_10
REMARK    5  A    between atoms: C_10  and  C_17
REMARK    6  A    between atoms: O_11  and  C_17
REMARK    7  A    between atoms: O_12  and  C_18
REMARK    8  A    between atoms: C_18  and  C_19
REMARK    9  A    between atoms: C_19  and  C_20
REMARK                            x       y       z     vdW  Elec       q    Type
REMARK                         _______ _______ _______ _____ _____    ______ ____
ROOT
ATOM      1  C   UNL     1     132.500 148.495  89.342  0.00  0.00    +0.000 A 
ATOM      2  C   UNL     1     131.816 147.799  88.311  0.00  0.00    +0.000 A 
ATOM      3  C   UNL     1     132.132 148.425  88.163  0.00  0.00    +0.000 A 
ATOM      4  C   UNL     1     131.838 147.520  88.964  0.00  0.00    +0.000 A 
ATOM      5  C   UNL     1     132.473 148.766  88.687  0.00  0.00    +0.000 A 
ATOM      6  C   UNL     1     132.182 147.872  89.478  0.00  0.00    +0.000 A 
ENDROOT
BRANCH   1   7
ATOM      7  O   UNL     1     132.837 148.835  89.856  0.00  0.00    +0.000 OA
BRANCH   7   8
ATOM      8  C   UNL     1     133.548 148.847  89.870  0.00  0.00    +0.000 C 
BRANCH   8   9
ATOM      9  C   UNL     1     133.887 149.122  90.427  0.00  0.00    +0.000 C 
BRANCH   9  10
ATOM     10  C   UNL     1     134.578 149.224  90.416  0.00  0.00    +0.000 C 
BRANCH  10  11
ATOM     11  N   UNL     1     134.931 149.421  90.994  0.00  0.00    +0.000 NA
ATOM     12  O   UNL     1     135.643 149.820  92.163  0.00  0.00    +0.000 OA
ATOM     13  C   UNL     1     135.240 148.939  91.406  0.00  0.00    +0.000 C 
ATOM     14  C   UNL     1     134.978 150.098  91.167  0.00  0.00    +0.000 C 
ATOM     15  C   UNL     1     135.598 149.142  91.993  0.00  0.00    +0.000 C 
ATOM     16  C   UNL     1     135.334 150.305  91.752  0.00  0.00    +0.000 C 
ENDBRANCH  10  11
ENDBRANCH   9  10
ENDBRANCH   8   9
ENDBRANCH   7   8
ENDBRANCH   1   7
BRANCH   2  17
ATOM     17  O   UNL     1     131.470 147.451  87.784  0.00  0.00    +0.000 OA
BRANCH  17  18
ATOM     18  C   UNL     1     131.781 146.901  87.478  0.00  0.00    +0.000 C 
BRANCH  18  19
ATOM     19  C   UNL     1     131.455 146.575  86.927  0.00  0.00    +0.000 C 
BRANCH  19  20
ATOM     20  C   UNL     1     131.741 146.007  86.625  0.00  0.00    +0.000 C 
ATOM     21  C   UNL     1     131.413 145.689  86.077  0.00  0.00    +0.000 C 
ENDBRANCH  19  20
ENDBRANCH  18  19
ENDBRANCH  17  18
ENDBRANCH   2  17
TORSDOF 9
ENDMDL
MODEL 11
REMARK VINA RESULT:      -6.7     33.613     36.303
REMARK  Name = 
REMARK  9 active torsions:
REMARK  status: ('A' for Active; 'I' for Inactive)
REMARK    1  A    between atoms: N_1  and  C_9
REMARK    2  A    between atoms: C_3  and  O_11
REMARK    3  A    between atoms: C_4  and  O_12
REMARK    4  A    between atoms: C_9  and  C_10
REMARK    5  A    between atoms: C_10  and  C_17
REMARK    6  A    between atoms: O_11  and  C_17
REMARK    7  A    between atoms: O_12  and  C_18
REMARK    8  A    between atoms: C_18  and  C_19
REMARK    9  A    between atoms: C_19  and  C_20
REMARK                            x       y       z     vdW  Elec       q    Type
REMARK                         _______ _______ _______ _____ _____    ______ ____
ROOT
ATOM      1  C   UNL     1     123.346 132.454 117.878  0.00  0.00    +0.000 A 
ATOM      2  C   UNL     1     121.988 132.606 118.264  0.00  0.00    +0.000 A 
ATOM      3  C   UNL     1     122.272 133.062 117.789  0.00  0.00    +0.000 A 
ATOM      4  C   UNL     1     122.373 132.080 118.545  0.00  0.00    +0.000 A 
ATOM      5  C   UNL     1     122.954 132.977 117.602  0.00  0.00    +0.000 A 
ATOM      6  C   UNL     1     123.053 132.007 118.349  0.00  0.00    +0.000 A 
ENDROOT
BRANCH   1   7
ATOM      7  O   UNL     1     124.018 132.374 117.690  0.00  0.00    +0.000 OA
BRANCH   7   8
ATOM      8  C   UNL     1     124.487 132.893 117.810  0.00  0.00    +0.000 C 
BRANCH   8   9
ATOM      9  C   UNL     1     125.176 132.786 117.687  0.00  0.00    +0.000 C 
BRANCH   9  10
ATOM     10  C   UNL     1     125.634 133.313 117.710  0.00  0.00    +0.000 C 
BRANCH  10  11
ATOM     11  N   UNL     1     126.326 133.202 117.630  0.00  0.00    +0.000 NA
ATOM     12  O   UNL     1     127.725 132.979 117.467  0.00  0.00    +0.000 OA
ATOM     13  C   UNL     1     126.739 133.097 118.191  0.00  0.00    +0.000 C 
ATOM     14  C   UNL     1     126.612 133.196 116.991  0.00  0.00    +0.000 C 
ATOM     15  C   UNL     1     127.442 132.985 118.107  0.00  0.00    +0.000 C 
ATOM     16  C   UNL     1     127.313 133.084 116.901  0.00  0.00    +0.000 C 
ENDBRANCH  10  11
ENDBRANCH   9  10
ENDBRANCH   8   9
ENDBRANCH   7   8
ENDBRANCH   1   7
BRANCH   2  17
ATOM     17  O   UNL     1     121.299 132.689 118.456  0.00  0.00    +0.000 OA
BRANCH  17  18
ATOM     18  C   UNL     1     121.132 133.189 118.918  0.00  0.00    +0.000 C 
BRANCH  18  19
ATOM     19  C   UNL     1     120.441 133.310 119.072  0.00  0.00    +0.000 C 
BRANCH  19  20
ATOM     20  C   UNL     1     120.259 133.734 119.604  0.00  0.00    +0.000 C 
ATOM     21  C   UNL     1     119.576 133.916 119.700  0.00  0.00    +0.000 C 
ENDBRANCH  19  20
ENDBRANCH  18  19
ENDBRANCH  17  18
ENDBRANCH   2  17
TORSDOF 9
ENDMDL
MODEL 12
REMARK VINA RESULT:      -6.6     69.458     71.410
REMARK  Name = 
REMARK  9 active torsions:
REMARK  status: ('A' for Active; 'I' for Inactive)
REMARK    1  A    between atoms: N_1  and  C_9
REMARK    2  A    between atoms: C_3  and  O_11
REMARK    3  A    between atoms: C_4  and  O_12
REMARK    4  A    between atoms: C_9  and  C_10
REMARK    5  A    between atoms: C_10  and  C_17
REMARK    6  A    between atoms: O_11  and  C_17
REMARK    7  A    between atoms: O_12  and  C_18
REMARK    8  A    between atoms: C_18  and  C_19
REMARK    9  A    between atoms: C_19  and  C_20
REMARK                            x       y       z     vdW  Elec       q    Type
REMARK                         _______ _______ _______ _____ _____    ______ ____
ROOT
ATOM      1  C   UNL     1     106.584 122.189 192.891  0.00  0.00    +0.000 A 
ATOM      2  C   UNL     1     106.282 123.342 193.662  0.00  0.00    +0.000 A 
ATOM      3  C   UNL     1     106.894 123.319 193.289  0.00  0.00    +0.000 A 
ATOM      4  C   UNL     1     105.824 122.800 193.653  0.00  0.00    +0.000 A 
ATOM      5  C   UNL     1     107.036 122.736 192.906  0.00  0.00    +0.000 A 
ATOM      6  C   UNL     1     105.979 122.224 193.265  0.00  0.00    +0.000 A 
ENDROOT
BRANCH   1   7
ATOM      7  O   UNL     1     106.729 121.617 192.511  0.00  0.00    +0.000 OA
BRANCH   7   8
ATOM      8  C   UNL     1     106.582 121.602 191.816  0.00  0.00    +0.000 C 
BRANCH   8   9
ATOM      9  C   UNL     1     106.679 121.007 191.446  0.00  0.00    +0.000 C 
BRANCH   9  10
ATOM     10  C   UNL     1     106.590 120.994 190.753  0.00  0.00    +0.000 C 
BRANCH  10  11
ATOM     11  N   UNL     1     106.642 120.393 190.386  0.00  0.00    +0.000 NA
ATOM     12  O   UNL     1     106.750 119.180 189.645  0.00  0.00    +0.000 OA
ATOM     13  C   UNL     1     106.074 119.992 190.273  0.00  0.00    +0.000 C 
ATOM     14  C   UNL     1     107.260 120.188 190.129  0.00  0.00    +0.000 C 
ATOM     15  C   UNL     1     106.130 119.382 189.900  0.00  0.00    +0.000 C 
ATOM     16  C   UNL     1     107.322 119.580 189.756  0.00  0.00    +0.000 C 
ENDBRANCH  10  11
ENDBRANCH   9  10
ENDBRANCH   8   9
ENDBRANCH   7   8
ENDBRANCH   1   7
BRANCH   2  17
ATOM     17  O   UNL     1     106.135 123.930 194.051  0.00  0.00    +0.000 OA
BRANCH  17  18
ATOM     18  C   UNL     1     105.691 124.408 193.792  0.00  0.00    +0.000 C 
BRANCH  18  19
ATOM     19  C   UNL     1     105.551 125.001 194.172  0.00  0.00    +0.000 C 
BRANCH  19  20
ATOM     20  C   UNL     1     105.140 125.509 193.909  0.00  0.00    +0.000 C 
ATOM     21  C   UNL     1     105.052 126.120 194.267  0.00  0.00    +0.000 C 
ENDBRANCH  19  20
ENDBRANCH  18  19
ENDBRANCH  17  18
ENDBRANCH   2  17
TORSDOF 9
ENDMDL
MODEL 13
REMARK VINA RESULT:      -6.6     54.206     56.955
REMARK  Name = 
REMARK  9 active torsions:
REMARK  status: ('A' for Active; 'I' for Inactive)
REMARK    1  A    between atoms: N_1  and  C_9
REMARK    2  A    between atoms: C_3  and  O_11
REMARK    3  A    between atoms: C_4  and  O_12
REMARK    4  A    between atoms: C_9  and  C_10
REMARK    5  A    between atoms: C_10  and  C_17
REMARK    6  A    between atoms: O_11  and  C_17
REMARK    7  A    between atoms: O_12  and  C_18
REMARK    8  A    between atoms: C_18  and  C_19
REMARK    9  A    between atoms: C_19  and  C_20
REMARK                            x       y       z     vdW  Elec       q    Type
REMARK                         _______ _______ _______ _____ _____    ______ ____
ROOT
ATOM      1  C   UNL     1     133.248 147.012  88.355  0.00  0.00    +0.000 A 
ATOM      2  C   UNL     1     133.812 148.032  89.166  0.00  0.00    +0.000 A 
ATOM      3  C   UNL     1     133.191 147.729  89.361  0.00  0.00    +0.000 A 
ATOM      4  C   UNL     1     134.149 147.830  88.574  0.00  0.00    +0.000 A 
ATOM      5  C   UNL     1     132.917 147.219  88.947  0.00  0.00    +0.000 A 
ATOM      6  C   UNL     1     133.864 147.319  88.171  0.00  0.00    +0.000 A 
ENDROOT
BRANCH   1   7
ATOM      7  O   UNL     1     132.973 146.508  87.950  0.00  0.00    +0.000 OA
BRANCH   7   8
ATOM      8  C   UNL     1     132.423 146.652  87.524  0.00  0.00    +0.000 C 
BRANCH   8   9
ATOM      9  C   UNL     1     132.141 146.140  87.124  0.00  0.00    +0.000 C 
BRANCH   9  10
ATOM     10  C   UNL     1     131.599 146.269  86.702  0.00  0.00    +0.000 C 
BRANCH  10  11
ATOM     11  N   UNL     1     131.312 145.760  86.306  0.00  0.00    +0.000 NA
ATOM     12  O   UNL     1     130.735 144.734  85.503  0.00  0.00    +0.000 OA
ATOM     13  C   UNL     1     130.823 145.329  86.574  0.00  0.00    +0.000 C 
ATOM     14  C   UNL     1     131.510 145.677  85.639  0.00  0.00    +0.000 C 
ATOM     15  C   UNL     1     130.534 144.814  86.169  0.00  0.00    +0.000 C 
ATOM     16  C   UNL     1     131.225 145.164  85.231  0.00  0.00    +0.000 C 
ENDBRANCH  10  11
ENDBRANCH   9  10
ENDBRANCH   8   9
ENDBRANCH   7   8
ENDBRANCH   1   7
BRANCH   2  17
ATOM     17  O   UNL     1     134.093 148.548  89.581  0.00  0.00    +0.000 OA
BRANCH  17  18
ATOM     18  C   UNL     1     134.545 148.370  90.087  0.00  0.00    +0.000 C 
BRANCH  18  19
ATOM     19  C   UNL     1     134.828 148.883  90.502  0.00  0.00    +0.000 C 
BRANCH  19  20
ATOM     20  C   UNL     1     135.217 148.717  91.066  0.00  0.00    +0.000 C 
ATOM     21  C   UNL     1     135.551 149.229  91.434  0.00  0.00    +0.000 C 
ENDBRANCH  19  20
ENDBRANCH  18  19
ENDBRANCH  17  18
ENDBRANCH   2  17
TORSDOF 9
ENDMDL
MODEL 14
REMARK VINA RESULT:      -6.6      2.670      3.167
REMARK  Name = 
REMARK  9 active torsions:
REMARK  status: ('A' for Active; 'I' for Inactive)
REMARK    1  A    between atoms: N_1  and  C_9
REMARK    2  A    between atoms: C_3  and  O_11
REMARK    3  A    between atoms: C_4  and  O_12
REMARK    4  A    between atoms: C_9  and  C_10
REMARK    5  A    between atoms: C_10  and  C_17
REMARK    6  A    between atoms: O_11  and  C_17
REMARK    7  A    between atoms: O_12  and  C_18
REMARK    8  A    between atoms: C_18  and  C_19
REMARK    9  A    between atoms: C_19  and  C_20
REMARK                            x       y       z     vdW  Elec       q    Type
REMARK                         _______ _______ _______ _____ _____    ______ ____
ROOT
ATOM      1  C   UNL     1     154.443 132.073 139.231  0.00  0.00    +0.000 A 
ATOM      2  C   UNL     1     153.624 131.489 140.232  0.00  0.00    +0.000 A 
ATOM      3  C   UNL     1     153.906 131.072 139.722  0.00  0.00    +0.000 A 
ATOM      4  C   UNL     1     153.746 132.188 140.247  0.00  0.00    +0.000 A 
ATOM      5  C   UNL     1     154.316 131.375 139.225  0.00  0.00    +0.000 A 
ATOM      6  C   UNL     1     154.157 132.477 139.743  0.00  0.00    +0.000 A 
ENDROOT
BRANCH   1   7
ATOM      7  O   UNL     1     154.848 132.367 138.738  0.00  0.00    +0.000 OA
BRANCH   7   8
ATOM      8  C   UNL     1     155.554 132.385 138.819  0.00  0.00    +0.000 C 
BRANCH   8   9
ATOM      9  C   UNL     1     155.957 132.722 138.345  0.00  0.00    +0.000 C 
BRANCH   9  10
ATOM     10  C   UNL     1     156.654 132.695 138.379  0.00  0.00    +0.000 C 
BRANCH  10  11
ATOM     11  N   UNL     1     157.059 133.060 137.930  0.00  0.00    +0.000 NA
ATOM     12  O   UNL     1     157.877 133.795 137.024  0.00  0.00    +0.000 OA
ATOM     13  C   UNL     1     157.310 133.694 138.109  0.00  0.00    +0.000 C 
ATOM     14  C   UNL     1     157.217 132.796 137.301  0.00  0.00    +0.000 C 
ATOM     15  C   UNL     1     157.721 134.062 137.652  0.00  0.00    +0.000 C 
ATOM     16  C   UNL     1     157.627 133.160 136.841  0.00  0.00    +0.000 C 
ENDBRANCH  10  11
ENDBRANCH   9  10
ENDBRANCH   8   9
ENDBRANCH   7   8
ENDBRANCH   1   7
BRANCH   2  17
ATOM     17  O   UNL     1     153.208 131.187 140.737  0.00  0.00    +0.000 OA
BRANCH  17  18
ATOM     18  C   UNL     1     153.331 131.334 141.412  0.00  0.00    +0.000 C 
BRANCH  18  19
ATOM     19  C   UNL     1     152.938 131.012 141.919  0.00  0.00    +0.000 C 
BRANCH  19  20
ATOM     20  C   UNL     1     152.961 131.233 142.588  0.00  0.00    +0.000 C 
ATOM     21  C   UNL     1     152.524 130.950 143.075  0.00  0.00    +0.000 C 
ENDBRANCH  19  20
ENDBRANCH  18  19
ENDBRANCH  17  18
ENDBRANCH   2  17
TORSDOF 9
ENDMDL
MODEL 15
REMARK VINA RESULT:      -6.5     53.214     55.959
REMARK  Name = 
REMARK  9 active torsions:
REMARK  status: ('A' for Active; 'I' for Inactive)
REMARK    1  A    between atoms: N_1  and  C_9
REMARK    2  A    between atoms: C_3  and  O_11
REMARK    3  A    between atoms: C_4  and  O_12
REMARK    4  A    between atoms: C_9  and  C_10
REMARK    5  A    between atoms: C_10  and  C_17
REMARK    6  A    between atoms: O_11  and  C_17
REMARK    7  A    between atoms: O_12  and  C_18
REMARK    8  A    between atoms: C_18  and  C_19
REMARK    9  A    between atoms: C_19  and  C_20
REMARK                            x       y       z     vdW  Elec       q    Type
REMARK                         _______ _______ _______ _____ _____    ______ ____
ROOT
ATOM      1  C   UNL     1     117.823 145.120  97.419  0.00  0.00    +0.000 A 
ATOM      2  C   UNL     1     117.070 146.323  97.387  0.00  0.00    +0.000 A 
ATOM      3  C   UNL     1     117.308 146.073  98.015  0.00  0.00    +0.000 A 
ATOM      4  C   UNL     1     117.205 145.980  96.780  0.00  0.00    +0.000 A 
ATOM      5  C   UNL     1     117.684 145.469  98.021  0.00  0.00    +0.000 A 
ATOM      6  C   UNL     1     117.582 145.377  96.800  0.00  0.00    +0.000 A 
ENDROOT
BRANCH   1   7
ATOM      7  O   UNL     1     118.195 144.524  97.429  0.00  0.00    +0.000 OA
BRANCH   7   8
ATOM      8  C   UNL     1     118.902 144.545  97.494  0.00  0.00    +0.000 C 
BRANCH   8   9
ATOM      9  C   UNL     1     119.274 143.943  97.519  0.00  0.00    +0.000 C 
BRANCH   9  10
ATOM     10  C   UNL     1     119.971 143.951  97.567  0.00  0.00    +0.000 C 
BRANCH  10  11
ATOM     11  N   UNL     1     120.344 143.353  97.609  0.00  0.00    +0.000 NA
ATOM     12  O   UNL     1     121.097 142.146  97.693  0.00  0.00    +0.000 OA
ATOM     13  C   UNL     1     120.551 143.020  97.023  0.00  0.00    +0.000 C 
ATOM     14  C   UNL     1     120.513 143.084  98.232  0.00  0.00    +0.000 C 
ATOM     15  C   UNL     1     120.930 142.413  97.068  0.00  0.00    +0.000 C 
ATOM     16  C   UNL     1     120.890 142.478  98.282  0.00  0.00    +0.000 C 
ENDBRANCH  10  11
ENDBRANCH   9  10
ENDBRANCH   8   9
ENDBRANCH   7   8
ENDBRANCH   1   7
BRANCH   2  17
ATOM     17  O   UNL     1     116.689 146.934  97.377  0.00  0.00    +0.000 OA
BRANCH  17  18
ATOM     18  C   UNL     1     115.996 146.904  97.476  0.00  0.00    +0.000 C 
BRANCH  18  19
ATOM     19  C   UNL     1     115.612 147.512  97.467  0.00  0.00    +0.000 C 
BRANCH  19  20
ATOM     20  C   UNL     1     114.912 147.497  97.541  0.00  0.00    +0.000 C 
ATOM     21  C   UNL     1     114.537 148.104  97.524  0.00  0.00    +0.000 C 
ENDBRANCH  19  20
ENDBRANCH  18  19
ENDBRANCH  17  18
ENDBRANCH   2  17
TORSDOF 9
ENDMDL
MODEL 16
REMARK VINA RESULT:      -6.5     57.582     60.888
REMARK  Name = 
REMARK  9 active torsions:
REMARK  status: ('A' for Active; 'I' for Inactive)
REMARK    1  A    between atoms: N_1  and  C_9
REMARK    2  A    between atoms: C_3  and  O_11
REMARK    3  A    between atoms: C_4  and  O_12
REMARK    4  A    between atoms: C_9  and  C_10
REMARK    5  A    between atoms: C_10  and  C_17
REMARK    6  A    between atoms: O_11  and  C_17
REMARK    7  A    between atoms: O_12  and  C_18
REMARK    8  A    between atoms: C_18  and  C_19
REMARK    9  A    between atoms: C_19  and  C_20
REMARK                            x       y       z     vdW  Elec       q    Type
REMARK                         _______ _______ _______ _____ _____    ______ ____
ROOT
ATOM      1  C   UNL     1     134.407 153.342  85.107  0.00  0.00    +0.000 A 
ATOM      2  C   UNL     1     134.636 154.265  84.053  0.00  0.00    +0.000 A 
ATOM      3  C   UNL     1     135.103 154.228  84.596  0.00  0.00    +0.000 A 
ATOM      4  C   UNL     1     134.061 153.849  84.033  0.00  0.00    +0.000 A 
ATOM      5  C   UNL     1     134.979 153.761  85.119  0.00  0.00    +0.000 A 
ATOM      6  C   UNL     1     133.950 153.388  84.563  0.00  0.00    +0.000 A 
ENDROOT
BRANCH   1   7
ATOM      7  O   UNL     1     134.290 152.883  85.626  0.00  0.00    +0.000 OA
BRANCH   7   8
ATOM      8  C   UNL     1     133.817 153.032  86.134  0.00  0.00    +0.000 C 
BRANCH   8   9
ATOM      9  C   UNL     1     133.741 152.596  86.687  0.00  0.00    +0.000 C 
BRANCH   9  10
ATOM     10  C   UNL     1     133.222 152.682  87.147  0.00  0.00    +0.000 C 
BRANCH  10  11
ATOM     11  N   UNL     1     133.189 152.303  87.741  0.00  0.00    +0.000 NA
ATOM     12  O   UNL     1     133.123 151.535  88.940  0.00  0.00    +0.000 OA
ATOM     13  C   UNL     1     133.448 152.560  88.344  0.00  0.00    +0.000 C 
ATOM     14  C   UNL     1     132.899 151.666  87.739  0.00  0.00    +0.000 C 
ATOM     15  C   UNL     1     133.414 152.172  88.946  0.00  0.00    +0.000 C 
ATOM     16  C   UNL     1     132.862 151.275  88.337  0.00  0.00    +0.000 C 
ENDBRANCH  10  11
ENDBRANCH   9  10
ENDBRANCH   8   9
ENDBRANCH   7   8
ENDBRANCH   1   7
BRANCH   2  17
ATOM     17  O   UNL     1     134.757 154.736  83.522  0.00  0.00    +0.000 OA
BRANCH  17  18
ATOM     18  C   UNL     1     134.433 155.358  83.538  0.00  0.00    +0.000 C 
BRANCH  18  19
ATOM     19  C   UNL     1     134.567 155.837  83.020  0.00  0.00    +0.000 C 
BRANCH  19  20
ATOM     20  C   UNL     1     134.257 156.470  83.025  0.00  0.00    +0.000 C 
ATOM     21  C   UNL     1     134.450 156.967  82.551  0.00  0.00    +0.000 C 
ENDBRANCH  19  20
ENDBRANCH  18  19
ENDBRANCH  17  18
ENDBRANCH   2  17
TORSDOF 9
ENDMDL
MODEL 17
REMARK VINA RESULT:      -6.5     58.131     60.047
REMARK  Name = 
REMARK  9 active torsions:
REMARK  status: ('A' for Active; 'I' for Inactive)
REMARK    1  A    between atoms: N_1  and  C_9
REMARK    2  A    between atoms: C_3  and  O_11
REMARK    3  A    between atoms: C_4  and  O_12
REMARK    4  A    between atoms: C_9  and  C_10
REMARK    5  A    between atoms: C_10  and  C_17
REMARK    6  A    between atoms: O_11  and  C_17
REMARK    7  A    between atoms: O_12  and  C_18
REMARK    8  A    between atoms: C_18  and  C_19
REMARK    9  A    between atoms: C_19  and  C_20
REMARK                            x       y       z     vdW  Elec       q    Type
REMARK                         _______ _______ _______ _____ _____    ______ ____
ROOT
ATOM      1  C   UNL     1      99.579 134.357 167.440  0.00  0.00    +0.000 A 
ATOM      2  C   UNL     1      99.619 133.648 168.668  0.00  0.00    +0.000 A 
ATOM      3  C   UNL     1      99.279 133.359 168.107  0.00  0.00    +0.000 A 
ATOM      4  C   UNL     1      99.936 134.281 168.621  0.00  0.00    +0.000 A 
ATOM      5  C   UNL     1      99.265 133.723 167.495  0.00  0.00    +0.000 A 
ATOM      6  C   UNL     1      99.914 134.633 168.004  0.00  0.00    +0.000 A 
ENDROOT
BRANCH   1   7
ATOM      7  O   UNL     1      99.563 134.712 166.834  0.00  0.00    +0.000 OA
BRANCH   7   8
ATOM      8  C   UNL     1     100.115 134.685 166.388  0.00  0.00    +0.000 C 
BRANCH   8   9
ATOM      9  C   UNL     1     100.047 134.919 165.723  0.00  0.00    +0.000 C 
BRANCH   9  10
ATOM     10  C   UNL     1     100.607 135.075 165.336  0.00  0.00    +0.000 C 
BRANCH  10  11
ATOM     11  N   UNL     1     100.556 135.172 164.638  0.00  0.00    +0.000 NA
ATOM     12  O   UNL     1     100.456 135.366 163.230  0.00  0.00    +0.000 OA
ATOM     13  C   UNL     1     100.237 135.744 164.379  0.00  0.00    +0.000 C 
ATOM     14  C   UNL     1     100.824 134.700 164.195  0.00  0.00    +0.000 C 
ATOM     15  C   UNL     1     100.187 135.840 163.670  0.00  0.00    +0.000 C 
ATOM     16  C   UNL     1     100.777 134.791 163.487  0.00  0.00    +0.000 C 
ENDBRANCH  10  11
ENDBRANCH   9  10
ENDBRANCH   8   9
ENDBRANCH   7   8
ENDBRANCH   1   7
BRANCH   2  17
ATOM     17  O   UNL     1      99.636 133.283 169.289  0.00  0.00    +0.000 OA
BRANCH  17  18
ATOM     18  C   UNL     1      99.047 133.224 169.665  0.00  0.00    +0.000 C 
BRANCH  18  19
ATOM     19  C   UNL     1      99.047 132.817 170.257  0.00  0.00    +0.000 C 
BRANCH  19  20
ATOM     20  C   UNL     1      98.494 132.817 170.694  0.00  0.00    +0.000 C 
ATOM     21  C   UNL     1      98.494 132.397 171.271  0.00  0.00    +0.000 C 
ENDBRANCH  19  20
ENDBRANCH  18  19
ENDBRANCH  17  18
ENDBRANCH   2  17
TORSDOF 9
ENDMDL
MODEL 18
REMARK VINA RESULT:      -6.4      2.570      5.242
REMARK  Name = 
REMARK  9 active torsions:
REMARK  status: ('A' for Active; 'I' for Inactive)
REMARK    1  A    between atoms: N_1  and  C_9
REMARK    2  A    between atoms: C_3  and  O_11
REMARK    3  A    between atoms: C_4  and  O_12
REMARK    4  A    between atoms: C_9  and  C_10
REMARK    5  A    between atoms: C_10  and  C_17
REMARK    6  A    between atoms: O_11  and  C_17
REMARK    7  A    between atoms: O_12  and  C_18
REMARK    8  A    between atoms: C_18  and  C_19
REMARK    9  A    between atoms: C_19  and  C_20
REMARK                            x       y       z     vdW  Elec       q    Type
REMARK                         _______ _______ _______ _____ _____    ______ ____
ROOT
ATOM      1  C   UNL     1     154.429 133.204 139.321  0.00  0.00    +0.000 A 
ATOM      2  C   UNL     1     155.418 133.724 138.445  0.00  0.00    +0.000 A 
ATOM      3  C   UNL     1     155.316 133.015 138.479  0.00  0.00    +0.000 A 
ATOM      4  C   UNL     1     155.034 134.171 138.840  0.00  0.00    +0.000 A 
ATOM      5  C   UNL     1     154.817 132.764 138.922  0.00  0.00    +0.000 A 
ATOM      6  C   UNL     1     154.539 133.906 139.279  0.00  0.00    +0.000 A 
ENDROOT
BRANCH   1   7
ATOM      7  O   UNL     1     153.939 132.952 139.756  0.00  0.00    +0.000 OA
BRANCH   7   8
ATOM      8  C   UNL     1     154.112 132.764 140.419  0.00  0.00    +0.000 C 
BRANCH   8   9
ATOM      9  C   UNL     1     153.635 132.443 140.833  0.00  0.00    +0.000 C 
BRANCH   9  10
ATOM     10  C   UNL     1     153.781 132.286 141.498  0.00  0.00    +0.000 C 
BRANCH  10  11
ATOM     11  N   UNL     1     153.329 131.921 141.898  0.00  0.00    +0.000 NA
ATOM     12  O   UNL     1     152.415 131.183 142.705  0.00  0.00    +0.000 OA
ATOM     13  C   UNL     1     152.872 132.256 142.318  0.00  0.00    +0.000 C 
ATOM     14  C   UNL     1     153.327 131.221 141.883  0.00  0.00    +0.000 C 
ATOM     15  C   UNL     1     152.413 131.883 142.723  0.00  0.00    +0.000 C 
ATOM     16  C   UNL     1     152.871 130.844 142.285  0.00  0.00    +0.000 C 
ENDBRANCH  10  11
ENDBRANCH   9  10
ENDBRANCH   8   9
ENDBRANCH   7   8
ENDBRANCH   1   7
BRANCH   2  17
ATOM     17  O   UNL     1     155.921 133.981 137.998  0.00  0.00    +0.000 OA
BRANCH  17  18
ATOM     18  C   UNL     1     156.595 133.935 138.183  0.00  0.00    +0.000 C 
BRANCH  18  19
ATOM     19  C   UNL     1     157.096 134.233 137.763  0.00  0.00    +0.000 C 
BRANCH  19  20
ATOM     20  C   UNL     1     157.781 134.160 137.911  0.00  0.00    +0.000 C 
ATOM     21  C   UNL     1     158.268 134.535 137.549  0.00  0.00    +0.000 C 
ENDBRANCH  19  20
ENDBRANCH  18  19
ENDBRANCH  17  18
ENDBRANCH   2  17
TORSDOF 9
ENDMDL
MODEL 19
REMARK VINA RESULT:      -6.4      1.651      2.971
REMARK  Name = 
REMARK  9 active torsions:
REMARK  status: ('A' for Active; 'I' for Inactive)
REMARK    1  A    between atoms: N_1  and  C_9
REMARK    2  A    between atoms: C_3  and  O_11
REMARK    3  A    between atoms: C_4  and  O_12
REMARK    4  A    between atoms: C_9  and  C_10
REMARK    5  A    between atoms: C_10  and  C_17
REMARK    6  A    between atoms: O_11  and  C_17
REMARK    7  A    between atoms: O_12  and  C_18
REMARK    8  A    between atoms: C_18  and  C_19
REMARK    9  A    between atoms: C_19  and  C_20
REMARK                            x       y       z     vdW  Elec       q    Type
REMARK                         _______ _______ _______ _____ _____    ______ ____
ROOT
ATOM      1  C   UNL     1     152.628 133.433 137.361  0.00  0.00    +0.000 A 
ATOM      2  C   UNL     1     153.331 133.455 138.595  0.00  0.00    +0.000 A 
ATOM      3  C   UNL     1     153.458 132.927 138.127  0.00  0.00    +0.000 A 
ATOM      4  C   UNL     1     152.860 133.968 138.452  0.00  0.00    +0.000 A 
ATOM      5  C   UNL     1     153.100 132.925 137.511  0.00  0.00    +0.000 A 
ATOM      6  C   UNL     1     152.510 133.953 137.833  0.00  0.00    +0.000 A 
ENDROOT
BRANCH   1   7
ATOM      7  O   UNL     1     152.278 133.426 136.753  0.00  0.00    +0.000 OA
BRANCH   7   8
ATOM      8  C   UNL     1     151.654 133.089 136.703  0.00  0.00    +0.000 C 
BRANCH   8   9
ATOM      9  C   UNL     1     151.329 133.035 136.076  0.00  0.00    +0.000 C 
BRANCH   9  10
ATOM     10  C   UNL     1     150.680 132.783 136.026  0.00  0.00    +0.000 C 
BRANCH  10  11
ATOM     11  N   UNL     1     150.380 132.660 135.399  0.00  0.00    +0.000 NA
ATOM     12  O   UNL     1     149.773 132.411 134.133  0.00  0.00    +0.000 OA
ATOM     13  C   UNL     1     150.368 132.008 135.130  0.00  0.00    +0.000 C 
ATOM     14  C   UNL     1     150.089 133.183 135.036  0.00  0.00    +0.000 C 
ATOM     15  C   UNL     1     150.063 131.885 134.494  0.00  0.00    +0.000 C 
ATOM     16  C   UNL     1     149.783 133.066 134.400  0.00  0.00    +0.000 C 
ENDBRANCH  10  11
ENDBRANCH   9  10
ENDBRANCH   8   9
ENDBRANCH   7   8
ENDBRANCH   1   7
BRANCH   2  17
ATOM     17  O   UNL     1     153.690 133.461 139.219  0.00  0.00    +0.000 OA
BRANCH  17  18
ATOM     18  C   UNL     1     153.466 133.056 139.745  0.00  0.00    +0.000 C 
BRANCH  18  19
ATOM     19  C   UNL     1     153.764 133.125 140.394  0.00  0.00    +0.000 C 
BRANCH  19  20
ATOM     20  C   UNL     1     153.677 132.628 140.886  0.00  0.00    +0.000 C 
ATOM     21  C   UNL     1     153.734 132.794 141.577  0.00  0.00    +0.000 C 
ENDBRANCH  19  20
ENDBRANCH  18  19
ENDBRANCH  17  18
ENDBRANCH   2  17
TORSDOF 9
ENDMDL
MODEL 20
REMARK VINA RESULT:      -6.3     58.424     60.858
REMARK  Name = 
REMARK  9 active torsions:
REMARK  status: ('A' for Active; 'I' for Inactive)
REMARK    1  A    between atoms: N_1  and  C_9
REMARK    2  A    between atoms: C_3  and  O_11
REMARK    3  A    between atoms: C_4  and  O_12
REMARK    4  A    between atoms: C_9  and  C_10
REMARK    5  A    between atoms: C_10  and  C_17
REMARK    6  A    between atoms: O_11  and  C_17
REMARK    7  A    between atoms: O_12  and  C_18
REMARK    8  A    between atoms: C_18  and  C_19
REMARK    9  A    between atoms: C_19  and  C_20
REMARK                            x       y       z     vdW  Elec       q    Type
REMARK                         _______ _______ _______ _____ _____    ______ ____
ROOT
ATOM      1  C   UNL     1     103.732 132.226 174.398  0.00  0.00    +0.000 A 
ATOM      2  C   UNL     1     105.128 132.180 174.648  0.00  0.00    +0.000 A 
ATOM      3  C   UNL     1     104.893 132.214 173.972  0.00  0.00    +0.000 A 
ATOM      4  C   UNL     1     104.675 132.168 175.195  0.00  0.00    +0.000 A 
ATOM      5  C   UNL     1     104.191 132.237 173.857  0.00  0.00    +0.000 A 
ATOM      6  C   UNL     1     103.976 132.192 175.065  0.00  0.00    +0.000 A 
ENDROOT
BRANCH   1   7
ATOM      7  O   UNL     1     103.040 132.249 174.279  0.00  0.00    +0.000 OA
BRANCH   7   8
ATOM      8  C   UNL     1     102.694 131.666 174.064  0.00  0.00    +0.000 C 
BRANCH   8   9
ATOM      9  C   UNL     1     101.987 131.659 174.047  0.00  0.00    +0.000 C 
BRANCH   9  10
ATOM     10  C   UNL     1     101.639 131.170 173.690  0.00  0.00    +0.000 C 
BRANCH  10  11
ATOM     11  N   UNL     1     100.938 131.105 173.741  0.00  0.00    +0.000 NA
ATOM     12  O   UNL     1      99.522 130.976 173.844  0.00  0.00    +0.000 OA
ATOM     13  C   UNL     1     100.653 130.609 174.154  0.00  0.00    +0.000 C 
ATOM     14  C   UNL     1     100.515 131.533 173.382  0.00  0.00    +0.000 C 
ATOM     15  C   UNL     1      99.941 130.546 174.204  0.00  0.00    +0.000 C 
ATOM     16  C   UNL     1      99.804 131.474 173.429  0.00  0.00    +0.000 C 
ENDBRANCH  10  11
ENDBRANCH   9  10
ENDBRANCH   8   9
ENDBRANCH   7   8
ENDBRANCH   1   7
BRANCH   2  17
ATOM     17  O   UNL     1     105.838 132.156 174.769  0.00  0.00    +0.000 OA
BRANCH  17  18
ATOM     18  C   UNL     1     106.168 132.742 174.968  0.00  0.00    +0.000 C 
BRANCH  18  19
ATOM     19  C   UNL     1     106.873 132.718 175.105  0.00  0.00    +0.000 C 
BRANCH  19  20
ATOM     20  C   UNL     1     107.234 133.308 175.241  0.00  0.00    +0.000 C 
ATOM     21  C   UNL     1     107.944 133.287 175.306  0.00  0.00    +0.000 C 
ENDBRANCH  19  20
ENDBRANCH  18  19
ENDBRANCH  17  18
ENDBRANCH   2  17
TORSDOF 9
ENDMDL
