REMARK  Name = 
REMARK  4 active torsions:
REMARK  status: ('A' for Active; 'I' for Inactive)
REMARK    1  A    between atoms: N_1  and  C_9
REMARK    2  A    between atoms: N_2  and  C_10
REMARK    3  A    between atoms: C_9  and  C_14
REMARK    4  A    between atoms: C_10  and  C_13
REMARK                            x       y       z     vdW  Elec       q    Type
REMARK                         _______ _______ _______ _____ _____    ______ ____
ROOT
ATOM      1  N   UNL     1       0.171  -7.008   0.000  0.00  0.00    +0.000 N 
ATOM      2  N   UNL     1       0.175  -8.192   0.000  0.00  0.00    +0.000 N 
ATOM      3  C   UNL     1       0.600  -7.592   0.000  0.00  0.00    +0.000 C 
ATOM      4  C   UNL     1      -0.500  -7.237   0.000  0.00  0.00    +0.000 C 
ATOM      5  C   UNL     1      -0.500  -7.963   0.000  0.00  0.00    +0.000 C 
ATOM      6  S   UNL     1      -1.604  -7.592   0.000  0.00  0.00    +0.000 S 
ATOM      7  C   UNL     1      -1.179  -7.037   0.000  0.00  0.00    +0.000 C 
ATOM      8  C   UNL     1      -1.183  -8.179   0.000  0.00  0.00    +0.000 C 
ATOM      9  O   UNL     1       1.308  -7.567   0.000  0.00  0.00    +0.000 OA
ATOM     10  C   UNL     1      -2.275  -7.808   0.000  0.00  0.00    +0.000 C 
ATOM     11  C   UNL     1      -1.608  -8.738   0.000  0.00  0.00    +0.000 C 
ATOM     12  C   UNL     1      -2.275  -8.533   0.000  0.00  0.00    +0.000 C 
ENDROOT
BRANCH   1  13
ATOM     13  C   UNL     1       0.167  -6.300   0.000  0.00  0.00    +0.000 C 
BRANCH  13  14
ATOM     14  C   UNL     1       0.775  -5.938   0.000  0.00  0.00    +0.000 A 
ATOM     15  C   UNL     1       1.387  -6.287   0.000  0.00  0.00    +0.000 A 
ATOM     16  C   UNL     1       0.762  -5.233   0.000  0.00  0.00    +0.000 A 
ATOM     17  C   UNL     1       2.000  -5.929   0.000  0.00  0.00    +0.000 A 
ATOM     18  C   UNL     1       1.371  -4.871   0.000  0.00  0.00    +0.000 A 
ATOM     19  C   UNL     1       1.992  -5.217   0.000  0.00  0.00    +0.000 A 
ENDBRANCH  13  14
ENDBRANCH   1  13
BRANCH   2  20
ATOM     20  C   UNL     1       0.167  -8.900   0.000  0.00  0.00    +0.000 C 
BRANCH  20  21
ATOM     21  C   UNL     1       0.779  -9.258   0.000  0.00  0.00    +0.000 A 
ATOM     22  C   UNL     1       1.392  -8.908   0.000  0.00  0.00    +0.000 A 
ATOM     23  C   UNL     1       0.767  -9.967   0.000  0.00  0.00    +0.000 A 
ATOM     24  C   UNL     1       1.379 -10.325   0.000  0.00  0.00    +0.000 A 
ATOM     25  C   UNL     1       2.000  -9.267   0.000  0.00  0.00    +0.000 A 
ATOM     26  C   UNL     1       1.996  -9.975   0.000  0.00  0.00    +0.000 A 
ENDBRANCH  20  21
ENDBRANCH   2  20
TORSDOF 4
