MODEL 1
REMARK VINA RESULT:     -10.0      0.000      0.000
REMARK  Name = 
REMARK  9 active torsions:
REMARK  status: ('A' for Active; 'I' for Inactive)
REMARK    1  A    between atoms: C_1  and  C_6
REMARK    2  A    between atoms: C_2  and  C_10
REMARK    3  A    between atoms: C_3  and  C_9
REMARK    4  A    between atoms: C_6  and  O_13
REMARK    5  A    between atoms: N_8  and  C_12
REMARK    6  A    between atoms: C_10  and  O_24
REMARK    7  A    between atoms: N_11  and  C_21
REMARK    8  A    between atoms: O_13  and  C_18
REMARK    9  A    between atoms: C_21  and  C_28
REMARK                            x       y       z     vdW  Elec       q    Type
REMARK                         _______ _______ _______ _____ _____    ______ ____
ROOT
ATOM      1  C   UNL     1     127.740 128.939 189.040  0.00  0.00    +0.000 C 
ATOM      2  C   UNL     1     128.912 129.405 189.617  0.00  0.00    +0.000 C 
ATOM      3  C   UNL     1     128.212 129.010 189.681  0.00  0.00    +0.000 C 
ATOM      4  C   UNL     1     127.963 129.252 188.363  0.00  0.00    +0.000 C 
ATOM      5  C   UNL     1     129.120 129.711 188.935  0.00  0.00    +0.000 C 
ATOM      6  N   UNL     1     128.647 129.640 188.295  0.00  0.00    +0.000 NA
ATOM      7  C   UNL     1     129.797 130.096 188.865  0.00  0.00    +0.000 C 
ATOM      8  C   UNL     1     127.498 129.181 187.734  0.00  0.00    +0.000 C 
ENDROOT
BRANCH   3   9
ATOM      9  C   UNL     1     127.998 128.694 190.384  0.00  0.00    +0.000 A 
ATOM     10  C   UNL     1     127.402 128.797 191.600  0.00  0.00    +0.000 A 
ATOM     11  C   UNL     1     127.607 129.116 190.915  0.00  0.00    +0.000 A 
ATOM     12  C   UNL     1     128.182 127.955 190.539  0.00  0.00    +0.000 A 
ATOM     13  C   UNL     1     127.588 128.054 191.754  0.00  0.00    +0.000 A 
ATOM     14  C   UNL     1     127.981 127.627 191.222  0.00  0.00    +0.000 A 
BRANCH  10  15
ATOM     15  N   UNL     1     127.014 129.218 192.126  0.00  0.00    +0.000 N 
ATOM     16  O   UNL     1     127.386 129.516 192.742  0.00  0.00    +0.000 OA
ATOM     17  O   UNL     1     126.242 129.344 192.037  0.00  0.00    +0.000 OA
ENDBRANCH  10  15
ENDBRANCH   3   9
BRANCH   1  18
ATOM     18  C   UNL     1     127.059 128.549 189.122  0.00  0.00    +0.000 C 
ATOM     19  O   UNL     1     127.040 127.589 189.194  0.00  0.00    +0.000 OA
BRANCH  18  20
ATOM     20  O   UNL     1     126.355 128.902 189.150  0.00  0.00    +0.000 OA
BRANCH  20  22
ATOM     21  N   UNL     1     124.677 127.902 188.661  0.00  0.00    +0.000 NA
ATOM     22  C   UNL     1     125.796 128.420 188.880  0.00  0.00    +0.000 C 
ATOM     23  C   UNL     1     125.062 128.462 189.009  0.00  0.00    +0.000 C 
ATOM     24  C   UNL     1     125.906 127.766 188.399  0.00  0.00    +0.000 C 
ATOM     25  C   UNL     1     125.177 127.431 188.257  0.00  0.00    +0.000 C 
BRANCH  21  26
ATOM     26  C   UNL     1     123.893 127.809 188.699  0.00  0.00    +0.000 C 
BRANCH  26  27
ATOM     27  C   UNL     1     123.558 128.068 188.038  0.00  0.00    +0.000 A 
ATOM     28  C   UNL     1     123.598 127.639 187.373  0.00  0.00    +0.000 A 
ATOM     29  C   UNL     1     123.173 128.768 188.036  0.00  0.00    +0.000 A 
ATOM     30  C   UNL     1     123.258 127.905 186.710  0.00  0.00    +0.000 A 
ATOM     31  C   UNL     1     122.838 129.027 187.375  0.00  0.00    +0.000 A 
ATOM     32  C   UNL     1     122.878 128.596 186.706  0.00  0.00    +0.000 A 
ENDBRANCH  26  27
ENDBRANCH  21  26
ENDBRANCH  20  22
ENDBRANCH  18  20
ENDBRANCH   1  18
BRANCH   2  33
ATOM     33  C   UNL     1     129.387 129.481 190.250  0.00  0.00    +0.000 C 
ATOM     34  O   UNL     1     129.824 128.865 190.451  0.00  0.00    +0.000 OA
BRANCH  33  35
ATOM     35  O   UNL     1     129.424 130.151 190.670  0.00  0.00    +0.000 OA
ATOM     36  C   UNL     1     130.143 130.324 190.948  0.00  0.00    +0.000 C 
ENDBRANCH  33  35
ENDBRANCH   2  33
TORSDOF 9
ENDMDL
MODEL 2
REMARK VINA RESULT:      -9.8      2.353      5.503
REMARK  Name = 
REMARK  9 active torsions:
REMARK  status: ('A' for Active; 'I' for Inactive)
REMARK    1  A    between atoms: C_1  and  C_6
REMARK    2  A    between atoms: C_2  and  C_10
REMARK    3  A    between atoms: C_3  and  C_9
REMARK    4  A    between atoms: C_6  and  O_13
REMARK    5  A    between atoms: N_8  and  C_12
REMARK    6  A    between atoms: C_10  and  O_24
REMARK    7  A    between atoms: N_11  and  C_21
REMARK    8  A    between atoms: O_13  and  C_18
REMARK    9  A    between atoms: C_21  and  C_28
REMARK                            x       y       z     vdW  Elec       q    Type
REMARK                         _______ _______ _______ _____ _____    ______ ____
ROOT
ATOM      1  C   UNL     1     128.698 127.988 188.850  0.00  0.00    +0.000 C 
ATOM      2  C   UNL     1     127.318 128.010 188.712  0.00  0.00    +0.000 C 
ATOM      3  C   UNL     1     127.976 128.113 189.168  0.00  0.00    +0.000 C 
ATOM      4  C   UNL     1     128.757 127.769 188.104  0.00  0.00    +0.000 C 
ATOM      5  C   UNL     1     127.393 127.792 187.973  0.00  0.00    +0.000 C 
ATOM      6  N   UNL     1     128.116 127.667 187.655  0.00  0.00    +0.000 NA
ATOM      7  C   UNL     1     126.760 127.690 187.525  0.00  0.00    +0.000 C 
ATOM      8  C   UNL     1     129.467 127.647 187.793  0.00  0.00    +0.000 C 
ENDROOT
BRANCH   3   9
ATOM      9  C   UNL     1     127.899 128.338 189.931  0.00  0.00    +0.000 A 
ATOM     10  C   UNL     1     127.856 129.302 190.887  0.00  0.00    +0.000 A 
ATOM     11  C   UNL     1     127.933 129.093 190.136  0.00  0.00    +0.000 A 
ATOM     12  C   UNL     1     127.787 127.796 190.477  0.00  0.00    +0.000 A 
ATOM     13  C   UNL     1     127.745 128.756 191.434  0.00  0.00    +0.000 A 
ATOM     14  C   UNL     1     127.710 127.997 191.231  0.00  0.00    +0.000 A 
BRANCH  10  15
ATOM     15  N   UNL     1     127.890 130.053 191.088  0.00  0.00    +0.000 N 
ATOM     16  O   UNL     1     128.484 130.318 191.517  0.00  0.00    +0.000 OA
ATOM     17  O   UNL     1     127.324 130.549 190.857  0.00  0.00    +0.000 OA
ENDBRANCH  10  15
ENDBRANCH   3   9
BRANCH   1  18
ATOM     18  C   UNL     1     129.330 128.094 189.310  0.00  0.00    +0.000 C 
ATOM     19  O   UNL     1     129.757 128.954 189.380  0.00  0.00    +0.000 OA
BRANCH  18  20
ATOM     20  O   UNL     1     129.657 127.520 189.740  0.00  0.00    +0.000 OA
BRANCH  20  22
ATOM     21  N   UNL     1     131.516 127.980 190.364  0.00  0.00    +0.000 NA
ATOM     22  C   UNL     1     130.424 127.657 189.841  0.00  0.00    +0.000 C 
ATOM     23  C   UNL     1     130.761 127.910 190.457  0.00  0.00    +0.000 C 
ATOM     24  C   UNL     1     131.017 127.549 189.285  0.00  0.00    +0.000 C 
ATOM     25  C   UNL     1     131.725 127.760 189.628  0.00  0.00    +0.000 C 
BRANCH  21  26
ATOM     26  C   UNL     1     132.012 128.236 190.923  0.00  0.00    +0.000 C 
BRANCH  26  27
ATOM     27  C   UNL     1     132.457 127.643 191.181  0.00  0.00    +0.000 A 
ATOM     28  C   UNL     1     133.153 127.485 190.835  0.00  0.00    +0.000 A 
ATOM     29  C   UNL     1     132.208 127.196 191.794  0.00  0.00    +0.000 A 
ATOM     30  C   UNL     1     133.597 126.886 191.099  0.00  0.00    +0.000 A 
ATOM     31  C   UNL     1     132.653 126.603 192.051  0.00  0.00    +0.000 A 
ATOM     32  C   UNL     1     133.353 126.444 191.705  0.00  0.00    +0.000 A 
ENDBRANCH  26  27
ENDBRANCH  21  26
ENDBRANCH  20  22
ENDBRANCH  18  20
ENDBRANCH   1  18
BRANCH   2  33
ATOM     33  C   UNL     1     126.595 128.132 189.022  0.00  0.00    +0.000 C 
ATOM     34  O   UNL     1     126.294 127.570 189.472  0.00  0.00    +0.000 OA
BRANCH  33  35
ATOM     35  O   UNL     1     126.188 128.797 188.886  0.00  0.00    +0.000 OA
ATOM     36  C   UNL     1     125.404 128.701 188.863  0.00  0.00    +0.000 C 
ENDBRANCH  33  35
ENDBRANCH   2  33
TORSDOF 9
ENDMDL
MODEL 3
REMARK VINA RESULT:      -9.7     28.051     29.597
REMARK  Name = 
REMARK  9 active torsions:
REMARK  status: ('A' for Active; 'I' for Inactive)
REMARK    1  A    between atoms: C_1  and  C_6
REMARK    2  A    between atoms: C_2  and  C_10
REMARK    3  A    between atoms: C_3  and  C_9
REMARK    4  A    between atoms: C_6  and  O_13
REMARK    5  A    between atoms: N_8  and  C_12
REMARK    6  A    between atoms: C_10  and  O_24
REMARK    7  A    between atoms: N_11  and  C_21
REMARK    8  A    between atoms: O_13  and  C_18
REMARK    9  A    between atoms: C_21  and  C_28
REMARK                            x       y       z     vdW  Elec       q    Type
REMARK                         _______ _______ _______ _____ _____    ______ ____
ROOT
ATOM      1  C   UNL     1     136.646 118.315 163.694  0.00  0.00    +0.000 C 
ATOM      2  C   UNL     1     135.658 119.281 163.575  0.00  0.00    +0.000 C 
ATOM      3  C   UNL     1     136.114 118.803 164.037  0.00  0.00    +0.000 C 
ATOM      4  C   UNL     1     136.717 118.310 162.918  0.00  0.00    +0.000 C 
ATOM      5  C   UNL     1     135.741 119.264 162.805  0.00  0.00    +0.000 C 
ATOM      6  N   UNL     1     136.273 118.777 162.462  0.00  0.00    +0.000 NA
ATOM      7  C   UNL     1     135.302 119.725 162.350  0.00  0.00    +0.000 C 
ATOM      8  C   UNL     1     137.241 117.830 162.583  0.00  0.00    +0.000 C 
ENDROOT
BRANCH   3   9
ATOM      9  C   UNL     1     136.029 118.820 164.832  0.00  0.00    +0.000 A 
ATOM     10  C   UNL     1     136.321 119.353 166.047  0.00  0.00    +0.000 A 
ATOM     11  C   UNL     1     136.412 119.345 165.269  0.00  0.00    +0.000 A 
ATOM     12  C   UNL     1     135.556 118.306 165.174  0.00  0.00    +0.000 A 
ATOM     13  C   UNL     1     135.846 118.835 166.389  0.00  0.00    +0.000 A 
ATOM     14  C   UNL     1     135.459 118.307 165.953  0.00  0.00    +0.000 A 
BRANCH  10  15
ATOM     15  N   UNL     1     136.704 119.875 166.479  0.00  0.00    +0.000 N 
ATOM     16  O   UNL     1     136.311 120.379 166.924  0.00  0.00    +0.000 OA
ATOM     17  O   UNL     1     137.490 119.895 166.466  0.00  0.00    +0.000 OA
ENDBRANCH  10  15
ENDBRANCH   3   9
BRANCH   1  18
ATOM     18  C   UNL     1     137.083 117.854 164.162  0.00  0.00    +0.000 C 
ATOM     19  O   UNL     1     136.714 117.062 164.567  0.00  0.00    +0.000 OA
BRANCH  18  20
ATOM     20  O   UNL     1     137.839 117.998 164.333  0.00  0.00    +0.000 OA
BRANCH  20  22
ATOM     21  N   UNL     1     139.165 116.493 164.514  0.00  0.00    +0.000 NA
ATOM     22  C   UNL     1     138.232 117.324 164.427  0.00  0.00    +0.000 C 
ATOM     23  C   UNL     1     138.970 117.222 164.397  0.00  0.00    +0.000 C 
ATOM     24  C   UNL     1     137.906 116.587 164.580  0.00  0.00    +0.000 C 
ATOM     25  C   UNL     1     138.515 116.049 164.636  0.00  0.00    +0.000 C 
BRANCH  21  26
ATOM     26  C   UNL     1     139.908 116.225 164.513  0.00  0.00    +0.000 C 
BRANCH  26  27
ATOM     27  C   UNL     1     140.038 115.793 163.870  0.00  0.00    +0.000 A 
ATOM     28  C   UNL     1     140.333 116.129 163.215  0.00  0.00    +0.000 A 
ATOM     29  C   UNL     1     139.873 115.012 163.876  0.00  0.00    +0.000 A 
ATOM     30  C   UNL     1     140.463 115.689 162.570  0.00  0.00    +0.000 A 
ATOM     31  C   UNL     1     140.004 114.581 163.233  0.00  0.00    +0.000 A 
ATOM     32  C   UNL     1     140.300 114.917 162.574  0.00  0.00    +0.000 A 
ENDBRANCH  26  27
ENDBRANCH  21  26
ENDBRANCH  20  22
ENDBRANCH  18  20
ENDBRANCH   1  18
BRANCH   2  33
ATOM     33  C   UNL     1     135.126 119.769 163.910  0.00  0.00    +0.000 C 
ATOM     34  O   UNL     1     134.449 119.460 164.147  0.00  0.00    +0.000 OA
BRANCH  33  35
ATOM     35  O   UNL     1     135.267 120.543 164.004  0.00  0.00    +0.000 OA
ATOM     36  C   UNL     1     134.626 121.001 163.947  0.00  0.00    +0.000 C 
ENDBRANCH  33  35
ENDBRANCH   2  33
TORSDOF 9
ENDMDL
MODEL 4
REMARK VINA RESULT:      -9.7     35.480     38.762
REMARK  Name = 
REMARK  9 active torsions:
REMARK  status: ('A' for Active; 'I' for Inactive)
REMARK    1  A    between atoms: C_1  and  C_6
REMARK    2  A    between atoms: C_2  and  C_10
REMARK    3  A    between atoms: C_3  and  C_9
REMARK    4  A    between atoms: C_6  and  O_13
REMARK    5  A    between atoms: N_8  and  C_12
REMARK    6  A    between atoms: C_10  and  O_24
REMARK    7  A    between atoms: N_11  and  C_21
REMARK    8  A    between atoms: O_13  and  C_18
REMARK    9  A    between atoms: C_21  and  C_28
REMARK                            x       y       z     vdW  Elec       q    Type
REMARK                         _______ _______ _______ _____ _____    ______ ____
ROOT
ATOM      1  C   UNL     1     105.835 143.783 159.538  0.00  0.00    +0.000 C 
ATOM      2  C   UNL     1     105.493 144.938 158.850  0.00  0.00    +0.000 C 
ATOM      3  C   UNL     1     105.599 144.546 159.547  0.00  0.00    +0.000 C 
ATOM      4  C   UNL     1     105.959 143.428 158.855  0.00  0.00    +0.000 C 
ATOM      5  C   UNL     1     105.620 144.571 158.179  0.00  0.00    +0.000 C 
ATOM      6  N   UNL     1     105.856 143.807 158.170  0.00  0.00    +0.000 NA
ATOM      7  C   UNL     1     105.519 144.944 157.499  0.00  0.00    +0.000 C 
ATOM      8  C   UNL     1     106.191 142.678 158.848  0.00  0.00    +0.000 C 
ENDROOT
BRANCH   3   9
ATOM      9  C   UNL     1     105.467 144.925 160.239  0.00  0.00    +0.000 A 
ATOM     10  C   UNL     1     104.656 145.257 161.276  0.00  0.00    +0.000 A 
ATOM     11  C   UNL     1     104.773 144.882 160.599  0.00  0.00    +0.000 A 
ATOM     12  C   UNL     1     106.041 145.343 160.557  0.00  0.00    +0.000 A 
ATOM     13  C   UNL     1     105.233 145.676 161.594  0.00  0.00    +0.000 A 
ATOM     14  C   UNL     1     105.931 145.722 161.235  0.00  0.00    +0.000 A 
BRANCH  10  15
ATOM     15  N   UNL     1     103.966 145.212 161.631  0.00  0.00    +0.000 N 
ATOM     16  O   UNL     1     103.316 145.420 161.255  0.00  0.00    +0.000 OA
ATOM     17  O   UNL     1     103.921 144.957 162.375  0.00  0.00    +0.000 OA
ENDBRANCH  10  15
ENDBRANCH   3   9
BRANCH   1  18
ATOM     18  C   UNL     1     105.934 143.416 160.229  0.00  0.00    +0.000 C 
ATOM     19  O   UNL     1     105.222 142.903 160.627  0.00  0.00    +0.000 OA
BRANCH  18  20
ATOM     20  O   UNL     1     106.606 143.437 160.641  0.00  0.00    +0.000 OA
BRANCH  20  22
ATOM     21  N   UNL     1     107.150 141.921 161.850  0.00  0.00    +0.000 NA
ATOM     22  C   UNL     1     106.689 142.778 161.062  0.00  0.00    +0.000 C 
ATOM     23  C   UNL     1     107.243 142.609 161.532  0.00  0.00    +0.000 C 
ATOM     24  C   UNL     1     106.178 142.137 161.071  0.00  0.00    +0.000 C 
ATOM     25  C   UNL     1     106.480 141.581 161.584  0.00  0.00    +0.000 C 
BRANCH  21  26
ATOM     26  C   UNL     1     107.651 141.598 162.368  0.00  0.00    +0.000 C 
BRANCH  26  27
ATOM     27  C   UNL     1     107.411 141.743 163.102  0.00  0.00    +0.000 A 
ATOM     28  C   UNL     1     106.914 141.244 163.467  0.00  0.00    +0.000 A 
ATOM     29  C   UNL     1     107.669 142.395 163.482  0.00  0.00    +0.000 A 
ATOM     30  C   UNL     1     106.676 141.396 164.206  0.00  0.00    +0.000 A 
ATOM     31  C   UNL     1     107.429 142.540 164.216  0.00  0.00    +0.000 A 
ATOM     32  C   UNL     1     106.930 142.040 164.583  0.00  0.00    +0.000 A 
ENDBRANCH  26  27
ENDBRANCH  21  26
ENDBRANCH  20  22
ENDBRANCH  18  20
ENDBRANCH   1  18
BRANCH   2  33
ATOM     33  C   UNL     1     105.258 145.698 158.851  0.00  0.00    +0.000 C 
ATOM     34  O   UNL     1     105.793 146.243 159.013  0.00  0.00    +0.000 OA
BRANCH  33  35
ATOM     35  O   UNL     1     104.510 145.906 158.695  0.00  0.00    +0.000 OA
ATOM     36  C   UNL     1     104.433 146.605 158.335  0.00  0.00    +0.000 C 
ENDBRANCH  33  35
ENDBRANCH   2  33
TORSDOF 9
ENDMDL
MODEL 5
REMARK VINA RESULT:      -9.3     25.828     27.439
REMARK  Name = 
REMARK  9 active torsions:
REMARK  status: ('A' for Active; 'I' for Inactive)
REMARK    1  A    between atoms: C_1  and  C_6
REMARK    2  A    between atoms: C_2  and  C_10
REMARK    3  A    between atoms: C_3  and  C_9
REMARK    4  A    between atoms: C_6  and  O_13
REMARK    5  A    between atoms: N_8  and  C_12
REMARK    6  A    between atoms: C_10  and  O_24
REMARK    7  A    between atoms: N_11  and  C_21
REMARK    8  A    between atoms: O_13  and  C_18
REMARK    9  A    between atoms: C_21  and  C_28
REMARK                            x       y       z     vdW  Elec       q    Type
REMARK                         _______ _______ _______ _____ _____    ______ ____
ROOT
ATOM      1  C   UNL     1     135.704 119.723 164.556  0.00  0.00    +0.000 C 
ATOM      2  C   UNL     1     135.865 119.315 163.240  0.00  0.00    +0.000 C 
ATOM      3  C   UNL     1     135.559 119.832 163.778  0.00  0.00    +0.000 C 
ATOM      4  C   UNL     1     136.139 119.119 164.784  0.00  0.00    +0.000 C 
ATOM      5  C   UNL     1     136.296 118.719 163.483  0.00  0.00    +0.000 C 
ATOM      6  N   UNL     1     136.441 118.610 164.261  0.00  0.00    +0.000 NA
ATOM      7  C   UNL     1     136.597 118.213 162.967  0.00  0.00    +0.000 C 
ATOM      8  C   UNL     1     136.281 119.012 165.549  0.00  0.00    +0.000 C 
ENDROOT
BRANCH   3   9
ATOM      9  C   UNL     1     135.114 120.448 163.528  0.00  0.00    +0.000 A 
ATOM     10  C   UNL     1     133.918 120.980 163.165  0.00  0.00    +0.000 A 
ATOM     11  C   UNL     1     134.344 120.370 163.411  0.00  0.00    +0.000 A 
ATOM     12  C   UNL     1     135.455 121.135 163.400  0.00  0.00    +0.000 A 
ATOM     13  C   UNL     1     134.262 121.669 163.037  0.00  0.00    +0.000 A 
ATOM     14  C   UNL     1     135.036 121.751 163.154  0.00  0.00    +0.000 A 
BRANCH  10  15
ATOM     15  N   UNL     1     133.153 120.899 163.050  0.00  0.00    +0.000 N 
ATOM     16  O   UNL     1     132.818 121.200 162.414  0.00  0.00    +0.000 OA
ATOM     17  O   UNL     1     132.713 120.513 163.576  0.00  0.00    +0.000 OA
ENDBRANCH  10  15
ENDBRANCH   3   9
BRANCH   1  18
ATOM     18  C   UNL     1     135.396 120.239 165.068  0.00  0.00    +0.000 C 
ATOM     19  O   UNL     1     135.732 121.139 165.131  0.00  0.00    +0.000 OA
BRANCH  18  20
ATOM     20  O   UNL     1     134.803 120.066 165.558  0.00  0.00    +0.000 OA
BRANCH  20  22
ATOM     21  N   UNL     1     134.436 121.248 167.146  0.00  0.00    +0.000 NA
ATOM     22  C   UNL     1     134.813 120.547 166.179  0.00  0.00    +0.000 C 
ATOM     23  C   UNL     1     134.228 120.784 166.577  0.00  0.00    +0.000 C 
ATOM     24  C   UNL     1     135.474 120.890 166.521  0.00  0.00    +0.000 C 
ATOM     25  C   UNL     1     135.226 121.345 167.149  0.00  0.00    +0.000 C 
BRANCH  21  26
ATOM     26  C   UNL     1     133.933 121.582 167.655  0.00  0.00    +0.000 C 
BRANCH  26  27
ATOM     27  C   UNL     1     134.036 121.281 168.373  0.00  0.00    +0.000 A 
ATOM     28  C   UNL     1     134.520 121.636 168.891  0.00  0.00    +0.000 A 
ATOM     29  C   UNL     1     133.652 120.614 168.584  0.00  0.00    +0.000 A 
ATOM     30  C   UNL     1     134.621 121.328 169.613  0.00  0.00    +0.000 A 
ATOM     31  C   UNL     1     133.755 120.313 169.301  0.00  0.00    +0.000 A 
ATOM     32  C   UNL     1     134.242 120.670 169.822  0.00  0.00    +0.000 A 
ENDBRANCH  26  27
ENDBRANCH  21  26
ENDBRANCH  20  22
ENDBRANCH  18  20
ENDBRANCH   1  18
BRANCH   2  33
ATOM     33  C   UNL     1     135.725 119.418 162.464  0.00  0.00    +0.000 C 
ATOM     34  O   UNL     1     136.149 119.954 162.086  0.00  0.00    +0.000 OA
BRANCH  33  35
ATOM     35  O   UNL     1     135.176 118.997 162.078  0.00  0.00    +0.000 OA
ATOM     36  C   UNL     1     135.345 118.859 161.319  0.00  0.00    +0.000 C 
ENDBRANCH  33  35
ENDBRANCH   2  33
TORSDOF 9
ENDMDL
MODEL 6
REMARK VINA RESULT:      -9.2     57.231     58.967
REMARK  Name = 
REMARK  9 active torsions:
REMARK  status: ('A' for Active; 'I' for Inactive)
REMARK    1  A    between atoms: C_1  and  C_6
REMARK    2  A    between atoms: C_2  and  C_10
REMARK    3  A    between atoms: C_3  and  C_9
REMARK    4  A    between atoms: C_6  and  O_13
REMARK    5  A    between atoms: N_8  and  C_12
REMARK    6  A    between atoms: C_10  and  O_24
REMARK    7  A    between atoms: N_11  and  C_21
REMARK    8  A    between atoms: O_13  and  C_18
REMARK    9  A    between atoms: C_21  and  C_28
REMARK                            x       y       z     vdW  Elec       q    Type
REMARK                         _______ _______ _______ _____ _____    ______ ____
ROOT
ATOM      1  C   UNL     1     154.609 131.476 137.944  0.00  0.00    +0.000 C 
ATOM      2  C   UNL     1     154.263 130.882 139.149  0.00  0.00    +0.000 C 
ATOM      3  C   UNL     1     154.063 131.329 138.508  0.00  0.00    +0.000 C 
ATOM      4  C   UNL     1     155.328 131.187 138.022  0.00  0.00    +0.000 C 
ATOM      5  C   UNL     1     154.983 130.601 139.211  0.00  0.00    +0.000 C 
ATOM      6  N   UNL     1     155.529 130.749 138.647  0.00  0.00    +0.000 NA
ATOM      7  C   UNL     1     155.185 130.167 139.830  0.00  0.00    +0.000 C 
ATOM      8  C   UNL     1     155.865 131.333 137.467  0.00  0.00    +0.000 C 
ENDROOT
BRANCH   3   9
ATOM      9  C   UNL     1     153.320 131.619 138.443  0.00  0.00    +0.000 A 
ATOM     10  C   UNL     1     152.407 132.602 138.649  0.00  0.00    +0.000 A 
ATOM     11  C   UNL     1     153.137 132.328 138.718  0.00  0.00    +0.000 A 
ATOM     12  C   UNL     1     152.773 131.186 138.100  0.00  0.00    +0.000 A 
ATOM     13  C   UNL     1     151.858 132.166 138.305  0.00  0.00    +0.000 A 
ATOM     14  C   UNL     1     152.039 131.452 138.027  0.00  0.00    +0.000 A 
BRANCH  10  15
ATOM     15  N   UNL     1     152.227 133.307 138.923  0.00  0.00    +0.000 N 
ATOM     16  O   UNL     1     151.837 133.814 138.479  0.00  0.00    +0.000 OA
ATOM     17  O   UNL     1     152.441 133.512 139.653  0.00  0.00    +0.000 OA
ENDBRANCH  10  15
ENDBRANCH   3   9
BRANCH   1  18
ATOM     18  C   UNL     1     154.395 131.915 137.324  0.00  0.00    +0.000 C 
ATOM     19  O   UNL     1     153.837 131.553 136.627  0.00  0.00    +0.000 OA
BRANCH  18  20
ATOM     20  O   UNL     1     154.614 132.666 137.225  0.00  0.00    +0.000 OA
BRANCH  20  22
ATOM     21  N   UNL     1     154.429 133.506 135.404  0.00  0.00    +0.000 NA
ATOM     22  C   UNL     1     154.594 132.858 136.463  0.00  0.00    +0.000 C 
ATOM     23  C   UNL     1     154.378 133.507 136.166  0.00  0.00    +0.000 C 
ATOM     24  C   UNL     1     154.811 132.379 135.834  0.00  0.00    +0.000 C 
ATOM     25  C   UNL     1     154.702 132.803 135.147  0.00  0.00    +0.000 C 
BRANCH  21  26
ATOM     26  C   UNL     1     154.237 134.118 134.943  0.00  0.00    +0.000 C 
BRANCH  26  27
ATOM     27  C   UNL     1     154.885 134.497 134.714  0.00  0.00    +0.000 A 
ATOM     28  C   UNL     1     155.182 135.085 135.155  0.00  0.00    +0.000 A 
ATOM     29  C   UNL     1     155.246 134.290 134.033  0.00  0.00    +0.000 A 
ATOM     30  C   UNL     1     155.836 135.464 134.919  0.00  0.00    +0.000 A 
ATOM     31  C   UNL     1     155.894 134.670 133.803  0.00  0.00    +0.000 A 
ATOM     32  C   UNL     1     156.194 135.261 134.246  0.00  0.00    +0.000 A 
ENDBRANCH  26  27
ENDBRANCH  21  26
ENDBRANCH  20  22
ENDBRANCH  18  20
ENDBRANCH   1  18
BRANCH   2  33
ATOM     33  C   UNL     1     153.724 130.731 139.714  0.00  0.00    +0.000 C 
ATOM     34  O   UNL     1     153.197 130.173 139.572  0.00  0.00    +0.000 OA
BRANCH  33  35
ATOM     35  O   UNL     1     153.714 131.127 140.400  0.00  0.00    +0.000 OA
ATOM     36  C   UNL     1     153.459 130.704 141.017  0.00  0.00    +0.000 C 
ENDBRANCH  33  35
ENDBRANCH   2  33
TORSDOF 9
ENDMDL
MODEL 7
REMARK VINA RESULT:      -9.0      2.264      3.655
REMARK  Name = 
REMARK  9 active torsions:
REMARK  status: ('A' for Active; 'I' for Inactive)
REMARK    1  A    between atoms: C_1  and  C_6
REMARK    2  A    between atoms: C_2  and  C_10
REMARK    3  A    between atoms: C_3  and  C_9
REMARK    4  A    between atoms: C_6  and  O_13
REMARK    5  A    between atoms: N_8  and  C_12
REMARK    6  A    between atoms: C_10  and  O_24
REMARK    7  A    between atoms: N_11  and  C_21
REMARK    8  A    between atoms: O_13  and  C_18
REMARK    9  A    between atoms: C_21  and  C_28
REMARK                            x       y       z     vdW  Elec       q    Type
REMARK                         _______ _______ _______ _____ _____    ______ ____
ROOT
ATOM      1  C   UNL     1     128.678 127.864 190.139  0.00  0.00    +0.000 C 
ATOM      2  C   UNL     1     128.084 128.106 191.369  0.00  0.00    +0.000 C 
ATOM      3  C   UNL     1     128.138 128.256 190.579  0.00  0.00    +0.000 C 
ATOM      4  C   UNL     1     129.145 127.342 190.481  0.00  0.00    +0.000 C 
ATOM      5  C   UNL     1     128.556 127.585 191.695  0.00  0.00    +0.000 C 
ATOM      6  N   UNL     1     129.096 127.192 191.255  0.00  0.00    +0.000 NA
ATOM      7  C   UNL     1     128.510 127.434 192.461  0.00  0.00    +0.000 C 
ATOM      8  C   UNL     1     129.675 126.957 190.048  0.00  0.00    +0.000 C 
ENDROOT
BRANCH   3   9
ATOM      9  C   UNL     1     127.651 128.794 190.242  0.00  0.00    +0.000 A 
ATOM     10  C   UNL     1     126.463 129.134 189.681  0.00  0.00    +0.000 A 
ATOM     11  C   UNL     1     126.930 128.599 190.009  0.00  0.00    +0.000 A 
ATOM     12  C   UNL     1     127.902 129.525 190.148  0.00  0.00    +0.000 A 
ATOM     13  C   UNL     1     126.716 129.867 189.587  0.00  0.00    +0.000 A 
ATOM     14  C   UNL     1     127.440 130.067 189.820  0.00  0.00    +0.000 A 
BRANCH  10  15
ATOM     15  N   UNL     1     125.747 128.937 189.449  0.00  0.00    +0.000 N 
ATOM     16  O   UNL     1     125.648 128.465 188.837  0.00  0.00    +0.000 OA
ATOM     17  O   UNL     1     125.118 129.214 189.834  0.00  0.00    +0.000 OA
ENDBRANCH  10  15
ENDBRANCH   3   9
BRANCH   1  18
ATOM     18  C   UNL     1     128.716 128.023 189.368  0.00  0.00    +0.000 C 
ATOM     19  O   UNL     1     129.078 128.856 189.048  0.00  0.00    +0.000 OA
BRANCH  18  20
ATOM     20  O   UNL     1     128.468 127.526 188.807  0.00  0.00    +0.000 OA
BRANCH  20  22
ATOM     21  N   UNL     1     128.920 127.938 186.888  0.00  0.00    +0.000 NA
ATOM     22  C   UNL     1     128.786 127.716 188.114  0.00  0.00    +0.000 C 
ATOM     23  C   UNL     1     128.447 127.726 187.449  0.00  0.00    +0.000 C 
ATOM     24  C   UNL     1     129.561 127.946 187.978  0.00  0.00    +0.000 C 
ATOM     25  C   UNL     1     129.645 128.089 187.181  0.00  0.00    +0.000 C 
BRANCH  21  26
ATOM     26  C   UNL     1     128.713 127.996 186.128  0.00  0.00    +0.000 C 
BRANCH  26  27
ATOM     27  C   UNL     1     128.437 128.716 185.978  0.00  0.00    +0.000 A 
ATOM     28  C   UNL     1     127.658 128.859 185.997  0.00  0.00    +0.000 A 
ATOM     29  C   UNL     1     128.944 129.308 185.806  0.00  0.00    +0.000 A 
ATOM     30  C   UNL     1     127.386 129.586 185.845  0.00  0.00    +0.000 A 
ATOM     31  C   UNL     1     128.669 130.028 185.656  0.00  0.00    +0.000 A 
ATOM     32  C   UNL     1     127.886 130.172 185.675  0.00  0.00    +0.000 A 
ENDBRANCH  26  27
ENDBRANCH  21  26
ENDBRANCH  20  22
ENDBRANCH  18  20
ENDBRANCH   1  18
BRANCH   2  33
ATOM     33  C   UNL     1     127.549 128.494 191.813  0.00  0.00    +0.000 C 
ATOM     34  O   UNL     1     126.844 128.169 191.896  0.00  0.00    +0.000 OA
BRANCH  33  35
ATOM     35  O   UNL     1     127.715 129.185 192.162  0.00  0.00    +0.000 OA
ATOM     36  C   UNL     1     127.350 129.297 192.853  0.00  0.00    +0.000 C 
ENDBRANCH  33  35
ENDBRANCH   2  33
TORSDOF 9
ENDMDL
MODEL 8
REMARK VINA RESULT:      -8.9      1.688      4.963
REMARK  Name = 
REMARK  9 active torsions:
REMARK  status: ('A' for Active; 'I' for Inactive)
REMARK    1  A    between atoms: C_1  and  C_6
REMARK    2  A    between atoms: C_2  and  C_10
REMARK    3  A    between atoms: C_3  and  C_9
REMARK    4  A    between atoms: C_6  and  O_13
REMARK    5  A    between atoms: N_8  and  C_12
REMARK    6  A    between atoms: C_10  and  O_24
REMARK    7  A    between atoms: N_11  and  C_21
REMARK    8  A    between atoms: O_13  and  C_18
REMARK    9  A    between atoms: C_21  and  C_28
REMARK                            x       y       z     vdW  Elec       q    Type
REMARK                         _______ _______ _______ _____ _____    ______ ____
ROOT
ATOM      1  C   UNL     1     126.752 128.200 188.394  0.00  0.00    +0.000 C 
ATOM      2  C   UNL     1     125.373 128.215 188.538  0.00  0.00    +0.000 C 
ATOM      3  C   UNL     1     126.097 128.517 188.722  0.00  0.00    +0.000 C 
ATOM      4  C   UNL     1     126.682 127.602 187.900  0.00  0.00    +0.000 C 
ATOM      5  C   UNL     1     125.319 127.620 188.044  0.00  0.00    +0.000 C 
ATOM      6  N   UNL     1     125.975 127.302 187.715  0.00  0.00    +0.000 NA
ATOM      7  C   UNL     1     124.621 127.320 187.860  0.00  0.00    +0.000 C 
ATOM      8  C   UNL     1     127.327 127.290 187.577  0.00  0.00    +0.000 C 
ENDROOT
BRANCH   3   9
ATOM      9  C   UNL     1     126.152 129.132 189.232  0.00  0.00    +0.000 A 
ATOM     10  C   UNL     1     126.223 129.624 190.496  0.00  0.00    +0.000 A 
ATOM     11  C   UNL     1     126.169 129.015 190.006  0.00  0.00    +0.000 A 
ATOM     12  C   UNL     1     126.189 129.855 188.950  0.00  0.00    +0.000 A 
ATOM     13  C   UNL     1     126.260 130.351 190.211  0.00  0.00    +0.000 A 
ATOM     14  C   UNL     1     126.243 130.471 189.434  0.00  0.00    +0.000 A 
BRANCH  10  15
ATOM     15  N   UNL     1     126.240 129.506 191.264  0.00  0.00    +0.000 N 
ATOM     16  O   UNL     1     125.604 129.635 191.695  0.00  0.00    +0.000 OA
ATOM     17  O   UNL     1     126.901 129.256 191.609  0.00  0.00    +0.000 OA
ENDBRANCH  10  15
ENDBRANCH   3   9
BRANCH   1  18
ATOM     18  C   UNL     1     127.452 128.509 188.586  0.00  0.00    +0.000 C 
ATOM     19  O   UNL     1     127.824 129.246 188.091  0.00  0.00    +0.000 OA
BRANCH  18  20
ATOM     20  O   UNL     1     127.894 128.247 189.185  0.00  0.00    +0.000 OA
BRANCH  20  22
ATOM     21  N   UNL     1     129.857 127.982 188.822  0.00  0.00    +0.000 NA
ATOM     22  C   UNL     1     128.657 128.292 189.000  0.00  0.00    +0.000 C 
ATOM     23  C   UNL     1     129.166 127.749 189.046  0.00  0.00    +0.000 C 
ATOM     24  C   UNL     1     129.053 128.952 188.716  0.00  0.00    +0.000 C 
ATOM     25  C   UNL     1     129.833 128.747 188.601  0.00  0.00    +0.000 C 
BRANCH  21  26
ATOM     26  C   UNL     1     130.501 127.525 188.812  0.00  0.00    +0.000 C 
BRANCH  26  27
ATOM     27  C   UNL     1     130.968 127.702 189.419  0.00  0.00    +0.000 A 
ATOM     28  C   UNL     1     131.564 128.216 189.328  0.00  0.00    +0.000 A 
ATOM     29  C   UNL     1     130.841 127.363 190.130  0.00  0.00    +0.000 A 
ATOM     30  C   UNL     1     132.031 128.392 189.943  0.00  0.00    +0.000 A 
ATOM     31  C   UNL     1     131.307 127.541 190.736  0.00  0.00    +0.000 A 
ATOM     32  C   UNL     1     131.907 128.058 190.646  0.00  0.00    +0.000 A 
ENDBRANCH  26  27
ENDBRANCH  21  26
ENDBRANCH  20  22
ENDBRANCH  18  20
ENDBRANCH   1  18
BRANCH   2  33
ATOM     33  C   UNL     1     124.716 128.526 188.861  0.00  0.00    +0.000 C 
ATOM     34  O   UNL     1     124.498 128.264 189.564  0.00  0.00    +0.000 OA
BRANCH  33  35
ATOM     35  O   UNL     1     124.290 129.083 188.492  0.00  0.00    +0.000 OA
ATOM     36  C   UNL     1     123.510 129.027 188.606  0.00  0.00    +0.000 C 
ENDBRANCH  33  35
ENDBRANCH   2  33
TORSDOF 9
ENDMDL
MODEL 9
REMARK VINA RESULT:      -8.8     40.361     42.464
REMARK  Name = 
REMARK  9 active torsions:
REMARK  status: ('A' for Active; 'I' for Inactive)
REMARK    1  A    between atoms: C_1  and  C_6
REMARK    2  A    between atoms: C_2  and  C_10
REMARK    3  A    between atoms: C_3  and  C_9
REMARK    4  A    between atoms: C_6  and  O_13
REMARK    5  A    between atoms: N_8  and  C_12
REMARK    6  A    between atoms: C_10  and  O_24
REMARK    7  A    between atoms: N_11  and  C_21
REMARK    8  A    between atoms: O_13  and  C_18
REMARK    9  A    between atoms: C_21  and  C_28
REMARK                            x       y       z     vdW  Elec       q    Type
REMARK                         _______ _______ _______ _____ _____    ______ ____
ROOT
ATOM      1  C   UNL     1     105.111 143.421 157.303  0.00  0.00    +0.000 C 
ATOM      2  C   UNL     1     104.772 142.076 157.285  0.00  0.00    +0.000 C 
ATOM      3  C   UNL     1     104.864 142.778 156.898  0.00  0.00    +0.000 C 
ATOM      4  C   UNL     1     105.258 143.362 158.065  0.00  0.00    +0.000 C 
ATOM      5  C   UNL     1     104.923 142.033 158.044  0.00  0.00    +0.000 C 
ATOM      6  N   UNL     1     105.169 142.677 158.448  0.00  0.00    +0.000 NA
ATOM      7  C   UNL     1     104.836 141.356 158.426  0.00  0.00    +0.000 C 
ATOM      8  C   UNL     1     105.500 143.995 158.462  0.00  0.00    +0.000 C 
ENDROOT
BRANCH   3   9
ATOM      9  C   UNL     1     104.709 142.822 156.115  0.00  0.00    +0.000 A 
ATOM     10  C   UNL     1     105.099 142.718 154.818  0.00  0.00    +0.000 A 
ATOM     11  C   UNL     1     105.263 142.671 155.583  0.00  0.00    +0.000 A 
ATOM     12  C   UNL     1     103.993 143.019 155.881  0.00  0.00    +0.000 A 
ATOM     13  C   UNL     1     104.380 142.916 154.585  0.00  0.00    +0.000 A 
ATOM     14  C   UNL     1     103.821 143.068 155.118  0.00  0.00    +0.000 A 
BRANCH  10  15
ATOM     15  N   UNL     1     105.651 142.568 154.291  0.00  0.00    +0.000 N 
ATOM     16  O   UNL     1     105.931 141.845 154.211  0.00  0.00    +0.000 OA
ATOM     17  O   UNL     1     105.929 143.147 153.837  0.00  0.00    +0.000 OA
ENDBRANCH  10  15
ENDBRANCH   3   9
BRANCH   1  18
ATOM     18  C   UNL     1     105.195 144.099 156.908  0.00  0.00    +0.000 C 
ATOM     19  O   UNL     1     104.429 144.607 156.621  0.00  0.00    +0.000 OA
BRANCH  18  20
ATOM     20  O   UNL     1     105.895 144.409 156.719  0.00  0.00    +0.000 OA
BRANCH  20  22
ATOM     21  N   UNL     1     105.955 146.333 156.127  0.00  0.00    +0.000 NA
ATOM     22  C   UNL     1     105.830 145.185 156.612  0.00  0.00    +0.000 C 
ATOM     23  C   UNL     1     106.129 145.593 156.063  0.00  0.00    +0.000 C 
ATOM     24  C   UNL     1     105.416 145.710 157.087  0.00  0.00    +0.000 C 
ATOM     25  C   UNL     1     105.499 146.455 156.769  0.00  0.00    +0.000 C 
BRANCH  21  26
ATOM     26  C   UNL     1     106.196 146.893 155.625  0.00  0.00    +0.000 C 
BRANCH  26  27
ATOM     27  C   UNL     1     106.807 147.283 155.928  0.00  0.00    +0.000 A 
ATOM     28  C   UNL     1     107.548 147.049 155.773  0.00  0.00    +0.000 A 
ATOM     29  C   UNL     1     106.681 147.919 156.394  0.00  0.00    +0.000 A 
ATOM     30  C   UNL     1     108.159 147.446 156.081  0.00  0.00    +0.000 A 
ATOM     31  C   UNL     1     107.291 148.309 156.696  0.00  0.00    +0.000 A 
ATOM     32  C   UNL     1     108.036 148.074 156.541  0.00  0.00    +0.000 A 
ENDBRANCH  26  27
ENDBRANCH  21  26
ENDBRANCH  20  22
ENDBRANCH  18  20
ENDBRANCH   1  18
BRANCH   2  33
ATOM     33  C   UNL     1     104.527 141.431 156.889  0.00  0.00    +0.000 C 
ATOM     34  O   UNL     1     105.071 140.985 156.550  0.00  0.00    +0.000 OA
BRANCH  33  35
ATOM     35  O   UNL     1     103.761 141.239 156.834  0.00  0.00    +0.000 OA
ATOM     36  C   UNL     1     103.621 140.463 156.790  0.00  0.00    +0.000 C 
ENDBRANCH  33  35
ENDBRANCH   2  33
TORSDOF 9
ENDMDL
MODEL 10
REMARK VINA RESULT:      -8.6      1.789      2.901
REMARK  Name = 
REMARK  9 active torsions:
REMARK  status: ('A' for Active; 'I' for Inactive)
REMARK    1  A    between atoms: C_1  and  C_6
REMARK    2  A    between atoms: C_2  and  C_10
REMARK    3  A    between atoms: C_3  and  C_9
REMARK    4  A    between atoms: C_6  and  O_13
REMARK    5  A    between atoms: N_8  and  C_12
REMARK    6  A    between atoms: C_10  and  O_24
REMARK    7  A    between atoms: N_11  and  C_21
REMARK    8  A    between atoms: O_13  and  C_18
REMARK    9  A    between atoms: C_21  and  C_28
REMARK                            x       y       z     vdW  Elec       q    Type
REMARK                         _______ _______ _______ _____ _____    ______ ____
ROOT
ATOM      1  C   UNL     1     126.177 128.871 189.364  0.00  0.00    +0.000 C 
ATOM      2  C   UNL     1     126.568 129.435 190.570  0.00  0.00    +0.000 C 
ATOM      3  C   UNL     1     126.757 129.063 189.880  0.00  0.00    +0.000 C 
ATOM      4  C   UNL     1     125.438 129.046 189.536  0.00  0.00    +0.000 C 
ATOM      5  C   UNL     1     125.827 129.602 190.726  0.00  0.00    +0.000 C 
ATOM      6  N   UNL     1     125.248 129.411 190.211  0.00  0.00    +0.000 NA
ATOM      7  C   UNL     1     125.636 129.963 191.393  0.00  0.00    +0.000 C 
ATOM      8  C   UNL     1     124.869 128.857 189.028  0.00  0.00    +0.000 C 
ENDROOT
BRANCH   3   9
ATOM      9  C   UNL     1     127.521 128.890 189.719  0.00  0.00    +0.000 A 
ATOM     10  C   UNL     1     128.579 128.040 189.754  0.00  0.00    +0.000 A 
ATOM     11  C   UNL     1     127.830 128.198 189.917  0.00  0.00    +0.000 A 
ATOM     12  C   UNL     1     127.962 129.420 189.359  0.00  0.00    +0.000 A 
ATOM     13  C   UNL     1     129.021 128.573 189.393  0.00  0.00    +0.000 A 
ATOM     14  C   UNL     1     128.713 129.269 189.193  0.00  0.00    +0.000 A 
BRANCH  10  15
ATOM     15  N   UNL     1     128.884 127.352 189.952  0.00  0.00    +0.000 N 
ATOM     16  O   UNL     1     128.737 127.044 190.652  0.00  0.00    +0.000 OA
ATOM     17  O   UNL     1     129.343 126.964 189.444  0.00  0.00    +0.000 OA
ENDBRANCH  10  15
ENDBRANCH   3   9
BRANCH   1  18
ATOM     18  C   UNL     1     126.381 128.508 188.695  0.00  0.00    +0.000 C 
ATOM     19  O   UNL     1     126.672 129.008 187.925  0.00  0.00    +0.000 OA
BRANCH  18  20
ATOM     20  O   UNL     1     126.363 127.725 188.601  0.00  0.00    +0.000 OA
BRANCH  20  22
ATOM     21  N   UNL     1     125.529 127.138 186.864  0.00  0.00    +0.000 NA
ATOM     22  C   UNL     1     126.171 127.543 187.860  0.00  0.00    +0.000 C 
ATOM     23  C   UNL     1     125.532 127.242 187.620  0.00  0.00    +0.000 C 
ATOM     24  C   UNL     1     126.638 127.647 187.195  0.00  0.00    +0.000 C 
ATOM     25  C   UNL     1     126.219 127.382 186.549  0.00  0.00    +0.000 C 
BRANCH  21  26
ATOM     26  C   UNL     1     124.925 126.830 186.459  0.00  0.00    +0.000 C 
BRANCH  26  27
ATOM     27  C   UNL     1     125.013 126.052 186.392  0.00  0.00    +0.000 A 
ATOM     28  C   UNL     1     125.482 125.749 185.829  0.00  0.00    +0.000 A 
ATOM     29  C   UNL     1     124.629 125.564 186.894  0.00  0.00    +0.000 A 
ATOM     30  C   UNL     1     125.566 124.964 185.767  0.00  0.00    +0.000 A 
ATOM     31  C   UNL     1     124.717 124.787 186.827  0.00  0.00    +0.000 A 
ATOM     32  C   UNL     1     125.188 124.481 186.261  0.00  0.00    +0.000 A 
ENDBRANCH  26  27
ENDBRANCH  21  26
ENDBRANCH  20  22
ENDBRANCH  18  20
ENDBRANCH   1  18
BRANCH   2  33
ATOM     33  C   UNL     1     127.140 129.629 191.088  0.00  0.00    +0.000 C 
ATOM     34  O   UNL     1     127.563 130.267 190.939  0.00  0.00    +0.000 OA
BRANCH  33  35
ATOM     35  O   UNL     1     127.282 129.196 191.736  0.00  0.00    +0.000 OA
ATOM     36  C   UNL     1     127.550 129.611 192.353  0.00  0.00    +0.000 C 
ENDBRANCH  33  35
ENDBRANCH   2  33
TORSDOF 9
ENDMDL
MODEL 11
REMARK VINA RESULT:      -8.6     57.524     59.178
REMARK  Name = 
REMARK  9 active torsions:
REMARK  status: ('A' for Active; 'I' for Inactive)
REMARK    1  A    between atoms: C_1  and  C_6
REMARK    2  A    between atoms: C_2  and  C_10
REMARK    3  A    between atoms: C_3  and  C_9
REMARK    4  A    between atoms: C_6  and  O_13
REMARK    5  A    between atoms: N_8  and  C_12
REMARK    6  A    between atoms: C_10  and  O_24
REMARK    7  A    between atoms: N_11  and  C_21
REMARK    8  A    between atoms: O_13  and  C_18
REMARK    9  A    between atoms: C_21  and  C_28
REMARK                            x       y       z     vdW  Elec       q    Type
REMARK                         _______ _______ _______ _____ _____    ______ ____
ROOT
ATOM      1  C   UNL     1     153.062 131.748 137.746  0.00  0.00    +0.000 C 
ATOM      2  C   UNL     1     153.897 131.155 138.681  0.00  0.00    +0.000 C 
ATOM      3  C   UNL     1     153.794 131.517 137.968  0.00  0.00    +0.000 C 
ATOM      4  C   UNL     1     152.459 131.620 138.223  0.00  0.00    +0.000 C 
ATOM      5  C   UNL     1     153.287 131.035 139.144  0.00  0.00    +0.000 C 
ATOM      6  N   UNL     1     152.555 131.267 138.922  0.00  0.00    +0.000 NA
ATOM      7  C   UNL     1     153.380 130.685 139.837  0.00  0.00    +0.000 C 
ATOM      8  C   UNL     1     151.739 131.848 138.004  0.00  0.00    +0.000 C 
ENDROOT
BRANCH   3   9
ATOM      9  C   UNL     1     154.423 131.641 137.490  0.00  0.00    +0.000 A 
ATOM     10  C   UNL     1     155.249 131.246 136.487  0.00  0.00    +0.000 A 
ATOM     11  C   UNL     1     154.631 131.114 136.949  0.00  0.00    +0.000 A 
ATOM     12  C   UNL     1     154.834 132.296 137.567  0.00  0.00    +0.000 A 
ATOM     13  C   UNL     1     155.661 131.905 136.566  0.00  0.00    +0.000 A 
ATOM     14  C   UNL     1     155.455 132.436 137.108  0.00  0.00    +0.000 A 
BRANCH  10  15
ATOM     15  N   UNL     1     155.453 130.722 135.950  0.00  0.00    +0.000 N 
ATOM     16  O   UNL     1     155.463 130.915 135.195  0.00  0.00    +0.000 OA
ATOM     17  O   UNL     1     155.652 129.992 136.168  0.00  0.00    +0.000 OA
ENDBRANCH  10  15
ENDBRANCH   3   9
BRANCH   1  18
ATOM     18  C   UNL     1     152.979 132.100 137.045  0.00  0.00    +0.000 C 
ATOM     19  O   UNL     1     153.282 133.003 136.903  0.00  0.00    +0.000 OA
BRANCH  18  20
ATOM     20  O   UNL     1     152.650 131.752 136.418  0.00  0.00    +0.000 OA
BRANCH  20  22
ATOM     21  N   UNL     1     152.009 132.874 134.873  0.00  0.00    +0.000 NA
ATOM     22  C   UNL     1     152.364 132.293 135.925  0.00  0.00    +0.000 C 
ATOM     23  C   UNL     1     152.318 132.247 135.182  0.00  0.00    +0.000 C 
ATOM     24  C   UNL     1     152.055 133.025 136.128  0.00  0.00    +0.000 C 
ATOM     25  C   UNL     1     151.825 133.400 135.443  0.00  0.00    +0.000 C 
BRANCH  21  26
ATOM     26  C   UNL     1     151.893 132.979 134.099  0.00  0.00    +0.000 C 
BRANCH  26  27
ATOM     27  C   UNL     1     151.124 132.971 133.938  0.00  0.00    +0.000 A 
ATOM     28  C   UNL     1     150.758 132.288 133.769  0.00  0.00    +0.000 A 
ATOM     29  C   UNL     1     150.709 133.653 133.945  0.00  0.00    +0.000 A 
ATOM     30  C   UNL     1     149.984 132.286 133.608  0.00  0.00    +0.000 A 
ATOM     31  C   UNL     1     149.941 133.644 133.784  0.00  0.00    +0.000 A 
ATOM     32  C   UNL     1     149.572 132.958 133.614  0.00  0.00    +0.000 A 
ENDBRANCH  26  27
ENDBRANCH  21  26
ENDBRANCH  20  22
ENDBRANCH  18  20
ENDBRANCH   1  18
BRANCH   2  33
ATOM     33  C   UNL     1     154.624 130.923 138.908  0.00  0.00    +0.000 C 
ATOM     34  O   UNL     1     155.117 131.471 139.164  0.00  0.00    +0.000 OA
BRANCH  33  35
ATOM     35  O   UNL     1     154.849 130.164 138.879  0.00  0.00    +0.000 OA
ATOM     36  C   UNL     1     155.361 129.953 139.442  0.00  0.00    +0.000 C 
ENDBRANCH  33  35
ENDBRANCH   2  33
TORSDOF 9
ENDMDL
MODEL 12
REMARK VINA RESULT:      -8.5      1.588      2.322
REMARK  Name = 
REMARK  9 active torsions:
REMARK  status: ('A' for Active; 'I' for Inactive)
REMARK    1  A    between atoms: C_1  and  C_6
REMARK    2  A    between atoms: C_2  and  C_10
REMARK    3  A    between atoms: C_3  and  C_9
REMARK    4  A    between atoms: C_6  and  O_13
REMARK    5  A    between atoms: N_8  and  C_12
REMARK    6  A    between atoms: C_10  and  O_24
REMARK    7  A    between atoms: N_11  and  C_21
REMARK    8  A    between atoms: O_13  and  C_18
REMARK    9  A    between atoms: C_21  and  C_28
REMARK                            x       y       z     vdW  Elec       q    Type
REMARK                         _______ _______ _______ _____ _____    ______ ____
ROOT
ATOM      1  C   UNL     1     129.836 128.431 188.867  0.00  0.00    +0.000 C 
ATOM      2  C   UNL     1     130.812 128.271 189.841  0.00  0.00    +0.000 C 
ATOM      3  C   UNL     1     130.036 128.261 189.622  0.00  0.00    +0.000 C 
ATOM      4  C   UNL     1     130.396 128.605 188.354  0.00  0.00    +0.000 C 
ATOM      5  C   UNL     1     131.356 128.446 189.318  0.00  0.00    +0.000 C 
ATOM      6  N   UNL     1     131.157 128.616 188.563  0.00  0.00    +0.000 NA
ATOM      7  C   UNL     1     132.111 128.459 189.522  0.00  0.00    +0.000 C 
ATOM      8  C   UNL     1     130.199 128.772 187.612  0.00  0.00    +0.000 C 
ENDROOT
BRANCH   3   9
ATOM      9  C   UNL     1     129.474 128.080 190.162  0.00  0.00    +0.000 A 
ATOM     10  C   UNL     1     128.576 128.450 191.112  0.00  0.00    +0.000 A 
ATOM     11  C   UNL     1     129.125 128.638 190.586  0.00  0.00    +0.000 A 
ATOM     12  C   UNL     1     129.272 127.336 190.265  0.00  0.00    +0.000 A 
ATOM     13  C   UNL     1     128.375 127.702 191.214  0.00  0.00    +0.000 A 
ATOM     14  C   UNL     1     128.724 127.139 190.790  0.00  0.00    +0.000 A 
BRANCH  10  15
ATOM     15  N   UNL     1     128.231 129.006 191.532  0.00  0.00    +0.000 N 
ATOM     16  O   UNL     1     127.488 128.929 191.752  0.00  0.00    +0.000 OA
ATOM     17  O   UNL     1     128.634 129.652 191.736  0.00  0.00    +0.000 OA
ENDBRANCH  10  15
ENDBRANCH   3   9
BRANCH   1  18
ATOM     18  C   UNL     1     129.072 128.415 188.672  0.00  0.00    +0.000 C 
ATOM     19  O   UNL     1     128.605 127.582 188.556  0.00  0.00    +0.000 OA
BRANCH  18  20
ATOM     20  O   UNL     1     128.639 129.064 188.557  0.00  0.00    +0.000 OA
BRANCH  20  22
ATOM     21  N   UNL     1     126.856 128.933 187.630  0.00  0.00    +0.000 NA
ATOM     22  C   UNL     1     128.009 128.897 188.117  0.00  0.00    +0.000 C 
ATOM     23  C   UNL     1     127.345 129.236 188.132  0.00  0.00    +0.000 C 
ATOM     24  C   UNL     1     127.953 128.310 187.548  0.00  0.00    +0.000 C 
ATOM     25  C   UNL     1     127.203 128.336 187.232  0.00  0.00    +0.000 C 
BRANCH  21  26
ATOM     26  C   UNL     1     126.113 129.182 187.524  0.00  0.00    +0.000 C 
BRANCH  26  27
ATOM     27  C   UNL     1     125.637 128.837 188.044  0.00  0.00    +0.000 A 
ATOM     28  C   UNL     1     125.477 129.189 188.736  0.00  0.00    +0.000 A 
ATOM     29  C   UNL     1     125.312 128.127 187.876  0.00  0.00    +0.000 A 
ATOM     30  C   UNL     1     124.995 128.837 189.256  0.00  0.00    +0.000 A 
ATOM     31  C   UNL     1     124.835 127.782 188.396  0.00  0.00    +0.000 A 
ATOM     32  C   UNL     1     124.674 128.136 189.091  0.00  0.00    +0.000 A 
ENDBRANCH  26  27
ENDBRANCH  21  26
ENDBRANCH  20  22
ENDBRANCH  18  20
ENDBRANCH   1  18
BRANCH   2  33
ATOM     33  C   UNL     1     131.017 128.103 190.591  0.00  0.00    +0.000 C 
ATOM     34  O   UNL     1     131.024 128.690 191.106  0.00  0.00    +0.000 OA
BRANCH  33  35
ATOM     35  O   UNL     1     131.210 127.369 190.818  0.00  0.00    +0.000 OA
ATOM     36  C   UNL     1     131.795 127.334 191.348  0.00  0.00    +0.000 C 
ENDBRANCH  33  35
ENDBRANCH   2  33
TORSDOF 9
ENDMDL
MODEL 13
REMARK VINA RESULT:      -8.5     39.363     41.823
REMARK  Name = 
REMARK  9 active torsions:
REMARK  status: ('A' for Active; 'I' for Inactive)
REMARK    1  A    between atoms: C_1  and  C_6
REMARK    2  A    between atoms: C_2  and  C_10
REMARK    3  A    between atoms: C_3  and  C_9
REMARK    4  A    between atoms: C_6  and  O_13
REMARK    5  A    between atoms: N_8  and  C_12
REMARK    6  A    between atoms: C_10  and  O_24
REMARK    7  A    between atoms: N_11  and  C_21
REMARK    8  A    between atoms: O_13  and  C_18
REMARK    9  A    between atoms: C_21  and  C_28
REMARK                            x       y       z     vdW  Elec       q    Type
REMARK                         _______ _______ _______ _____ _____    ______ ____
ROOT
ATOM      1  C   UNL     1     105.251 144.269 158.468  0.00  0.00    +0.000 C 
ATOM      2  C   UNL     1     105.447 145.216 159.463  0.00  0.00    +0.000 C 
ATOM      3  C   UNL     1     105.236 145.032 158.707  0.00  0.00    +0.000 C 
ATOM      4  C   UNL     1     105.470 143.715 158.970  0.00  0.00    +0.000 C 
ATOM      5  C   UNL     1     105.663 144.653 159.950  0.00  0.00    +0.000 C 
ATOM      6  N   UNL     1     105.678 143.891 159.711  0.00  0.00    +0.000 NA
ATOM      7  C   UNL     1     105.869 144.825 160.684  0.00  0.00    +0.000 C 
ATOM      8  C   UNL     1     105.484 142.966 158.735  0.00  0.00    +0.000 C 
ENDROOT
BRANCH   3   9
ATOM      9  C   UNL     1     105.013 145.613 158.204  0.00  0.00    +0.000 A 
ATOM     10  C   UNL     1     105.302 146.526 157.241  0.00  0.00    +0.000 A 
ATOM     11  C   UNL     1     105.531 145.958 157.729  0.00  0.00    +0.000 A 
ATOM     12  C   UNL     1     104.269 145.837 158.189  0.00  0.00    +0.000 A 
ATOM     13  C   UNL     1     104.554 146.749 157.227  0.00  0.00    +0.000 A 
ATOM     14  C   UNL     1     104.031 146.405 157.703  0.00  0.00    +0.000 A 
BRANCH  10  15
ATOM     15  N   UNL     1     105.819 146.867 156.770  0.00  0.00    +0.000 N 
ATOM     16  O   UNL     1     106.459 147.199 157.064  0.00  0.00    +0.000 OA
ATOM     17  O   UNL     1     105.696 146.877 155.992  0.00  0.00    +0.000 OA
ENDBRANCH  10  15
ENDBRANCH   3   9
BRANCH   1  18
ATOM     18  C   UNL     1     105.040 144.108 157.726  0.00  0.00    +0.000 C 
ATOM     19  O   UNL     1     104.124 144.185 157.439  0.00  0.00    +0.000 OA
BRANCH  18  20
ATOM     20  O   UNL     1     105.549 143.875 157.169  0.00  0.00    +0.000 OA
BRANCH  20  22
ATOM     21  N   UNL     1     104.872 142.998 155.488  0.00  0.00    +0.000 NA
ATOM     22  C   UNL     1     105.173 143.478 156.605  0.00  0.00    +0.000 C 
ATOM     23  C   UNL     1     105.360 143.432 155.884  0.00  0.00    +0.000 C 
ATOM     24  C   UNL     1     104.493 143.029 156.694  0.00  0.00    +0.000 C 
ATOM     25  C   UNL     1     104.300 142.718 155.966  0.00  0.00    +0.000 C 
BRANCH  21  26
ATOM     26  C   UNL     1     104.932 142.851 154.714  0.00  0.00    +0.000 C 
BRANCH  26  27
ATOM     27  C   UNL     1     104.990 142.078 154.589  0.00  0.00    +0.000 A 
ATOM     28  C   UNL     1     104.340 141.645 154.454  0.00  0.00    +0.000 A 
ATOM     29  C   UNL     1     105.706 141.727 154.597  0.00  0.00    +0.000 A 
ATOM     30  C   UNL     1     104.404 140.866 154.329  0.00  0.00    +0.000 A 
ATOM     31  C   UNL     1     105.764 140.954 154.472  0.00  0.00    +0.000 A 
ATOM     32  C   UNL     1     105.111 140.518 154.337  0.00  0.00    +0.000 A 
ENDBRANCH  26  27
ENDBRANCH  21  26
ENDBRANCH  20  22
ENDBRANCH  18  20
ENDBRANCH   1  18
BRANCH   2  33
ATOM     33  C   UNL     1     105.434 145.974 159.707  0.00  0.00    +0.000 C 
ATOM     34  O   UNL     1     104.740 146.288 159.877  0.00  0.00    +0.000 OA
BRANCH  33  35
ATOM     35  O   UNL     1     106.096 146.402 159.778  0.00  0.00    +0.000 OA
ATOM     36  C   UNL     1     106.070 146.953 160.344  0.00  0.00    +0.000 C 
ENDBRANCH  33  35
ENDBRANCH   2  33
TORSDOF 9
ENDMDL
MODEL 14
REMARK VINA RESULT:      -8.4      2.051      4.878
REMARK  Name = 
REMARK  9 active torsions:
REMARK  status: ('A' for Active; 'I' for Inactive)
REMARK    1  A    between atoms: C_1  and  C_6
REMARK    2  A    between atoms: C_2  and  C_10
REMARK    3  A    between atoms: C_3  and  C_9
REMARK    4  A    between atoms: C_6  and  O_13
REMARK    5  A    between atoms: N_8  and  C_12
REMARK    6  A    between atoms: C_10  and  O_24
REMARK    7  A    between atoms: N_11  and  C_21
REMARK    8  A    between atoms: O_13  and  C_18
REMARK    9  A    between atoms: C_21  and  C_28
REMARK                            x       y       z     vdW  Elec       q    Type
REMARK                         _______ _______ _______ _____ _____    ______ ____
ROOT
ATOM      1  C   UNL     1     128.963 129.800 189.910  0.00  0.00    +0.000 C 
ATOM      2  C   UNL     1     127.949 129.829 190.856  0.00  0.00    +0.000 C 
ATOM      3  C   UNL     1     128.191 129.711 190.096  0.00  0.00    +0.000 C 
ATOM      4  C   UNL     1     129.471 129.999 190.467  0.00  0.00    +0.000 C 
ATOM      5  C   UNL     1     128.466 130.027 191.398  0.00  0.00    +0.000 C 
ATOM      6  N   UNL     1     129.238 130.116 191.212  0.00  0.00    +0.000 NA
ATOM      7  C   UNL     1     128.239 130.143 192.138  0.00  0.00    +0.000 C 
ATOM      8  C   UNL     1     130.229 130.086 190.283  0.00  0.00    +0.000 C 
ENDROOT
BRANCH   3   9
ATOM      9  C   UNL     1     127.657 129.507 189.537  0.00  0.00    +0.000 A 
ATOM     10  C   UNL     1     127.006 128.568 188.803  0.00  0.00    +0.000 A 
ATOM     11  C   UNL     1     127.531 128.756 189.352  0.00  0.00    +0.000 A 
ATOM     12  C   UNL     1     127.258 130.065 189.172  0.00  0.00    +0.000 A 
ATOM     13  C   UNL     1     126.606 129.131 188.437  0.00  0.00    +0.000 A 
ATOM     14  C   UNL     1     126.730 129.886 188.620  0.00  0.00    +0.000 A 
BRANCH  10  15
ATOM     15  N   UNL     1     126.882 127.822 188.621  0.00  0.00    +0.000 N 
ATOM     16  O   UNL     1     127.175 127.524 187.963  0.00  0.00    +0.000 OA
ATOM     17  O   UNL     1     126.460 127.364 189.102  0.00  0.00    +0.000 OA
ENDBRANCH  10  15
ENDBRANCH   3   9
BRANCH   1  18
ATOM     18  C   UNL     1     129.182 129.680 189.162  0.00  0.00    +0.000 C 
ATOM     19  O   UNL     1     129.424 128.803 188.848  0.00  0.00    +0.000 OA
BRANCH  18  20
ATOM     20  O   UNL     1     129.220 130.254 188.622  0.00  0.00    +0.000 OA
BRANCH  20  22
ATOM     21  N   UNL     1     130.276 129.882 186.948  0.00  0.00    +0.000 NA
ATOM     22  C   UNL     1     129.746 130.072 188.067  0.00  0.00    +0.000 C 
ATOM     23  C   UNL     1     129.649 130.095 187.328  0.00  0.00    +0.000 C 
ATOM     24  C   UNL     1     130.515 129.816 188.188  0.00  0.00    +0.000 C 
ATOM     25  C   UNL     1     130.857 129.694 187.460  0.00  0.00    +0.000 C 
BRANCH  21  26
ATOM     26  C   UNL     1     130.333 129.853 186.161  0.00  0.00    +0.000 C 
BRANCH  26  27
ATOM     27  C   UNL     1     130.669 130.509 185.891  0.00  0.00    +0.000 A 
ATOM     28  C   UNL     1     131.457 130.554 185.815  0.00  0.00    +0.000 A 
ATOM     29  C   UNL     1     130.216 131.135 185.691  0.00  0.00    +0.000 A 
ATOM     30  C   UNL     1     131.790 131.217 185.542  0.00  0.00    +0.000 A 
ATOM     31  C   UNL     1     130.552 131.791 185.421  0.00  0.00    +0.000 A 
ATOM     32  C   UNL     1     131.344 131.836 185.344  0.00  0.00    +0.000 A 
ENDBRANCH  26  27
ENDBRANCH  21  26
ENDBRANCH  20  22
ENDBRANCH  18  20
ENDBRANCH   1  18
BRANCH   2  33
ATOM     33  C   UNL     1     127.181 129.742 191.048  0.00  0.00    +0.000 C 
ATOM     34  O   UNL     1     126.691 130.317 190.850  0.00  0.00    +0.000 OA
BRANCH  33  35
ATOM     35  O   UNL     1     126.914 129.101 191.427  0.00  0.00    +0.000 OA
ATOM     36  C   UNL     1     126.310 129.238 191.917  0.00  0.00    +0.000 C 
ENDBRANCH  33  35
ENDBRANCH   2  33
TORSDOF 9
ENDMDL
MODEL 15
REMARK VINA RESULT:      -8.3     67.183     68.739
REMARK  Name = 
REMARK  9 active torsions:
REMARK  status: ('A' for Active; 'I' for Inactive)
REMARK    1  A    between atoms: C_1  and  C_6
REMARK    2  A    between atoms: C_2  and  C_10
REMARK    3  A    between atoms: C_3  and  C_9
REMARK    4  A    between atoms: C_6  and  O_13
REMARK    5  A    between atoms: N_8  and  C_12
REMARK    6  A    between atoms: C_10  and  O_24
REMARK    7  A    between atoms: N_11  and  C_21
REMARK    8  A    between atoms: O_13  and  C_18
REMARK    9  A    between atoms: C_21  and  C_28
REMARK                            x       y       z     vdW  Elec       q    Type
REMARK                         _______ _______ _______ _____ _____    ______ ____
ROOT
ATOM      1  C   UNL     1     142.777 120.088 124.185  0.00  0.00    +0.000 C 
ATOM      2  C   UNL     1     142.879 119.819 125.542  0.00  0.00    +0.000 C 
ATOM      3  C   UNL     1     143.230 119.984 124.835  0.00  0.00    +0.000 C 
ATOM      4  C   UNL     1     142.003 120.029 124.244  0.00  0.00    +0.000 C 
ATOM      5  C   UNL     1     142.107 119.764 125.584  0.00  0.00    +0.000 C 
ATOM      6  N   UNL     1     141.654 119.868 124.934  0.00  0.00    +0.000 NA
ATOM      7  C   UNL     1     141.759 119.605 126.266  0.00  0.00    +0.000 C 
ATOM      8  C   UNL     1     141.559 120.132 123.604  0.00  0.00    +0.000 C 
ENDROOT
BRANCH   3   9
ATOM      9  C   UNL     1     144.027 120.041 124.792  0.00  0.00    +0.000 A 
ATOM     10  C   UNL     1     145.252 119.474 124.650  0.00  0.00    +0.000 A 
ATOM     11  C   UNL     1     144.473 119.406 124.691  0.00  0.00    +0.000 A 
ATOM     12  C   UNL     1     144.360 120.741 124.851  0.00  0.00    +0.000 A 
ATOM     13  C   UNL     1     145.586 120.177 124.709  0.00  0.00    +0.000 A 
ATOM     14  C   UNL     1     145.140 120.818 124.810  0.00  0.00    +0.000 A 
BRANCH  10  15
ATOM     15  N   UNL     1     145.694 118.841 124.550  0.00  0.00    +0.000 N 
ATOM     16  O   UNL     1     146.296 118.703 125.025  0.00  0.00    +0.000 OA
ATOM     17  O   UNL     1     145.533 118.337 123.967  0.00  0.00    +0.000 OA
ENDBRANCH  10  15
ENDBRANCH   3   9
BRANCH   1  18
ATOM     18  C   UNL     1     143.138 120.248 123.502  0.00  0.00    +0.000 C 
ATOM     19  O   UNL     1     143.452 121.136 123.301  0.00  0.00    +0.000 OA
BRANCH  18  20
ATOM     20  O   UNL     1     143.269 119.709 122.942  0.00  0.00    +0.000 OA
BRANCH  20  22
ATOM     21  N   UNL     1     142.866 120.489 121.129  0.00  0.00    +0.000 NA
ATOM     22  C   UNL     1     143.263 120.047 122.231  0.00  0.00    +0.000 C 
ATOM     23  C   UNL     1     142.676 120.139 121.780  0.00  0.00    +0.000 C 
ATOM     24  C   UNL     1     143.905 120.370 121.839  0.00  0.00    +0.000 C 
ATOM     25  C   UNL     1     143.645 120.657 121.123  0.00  0.00    +0.000 C 
BRANCH  21  26
ATOM     26  C   UNL     1     142.357 120.659 120.549  0.00  0.00    +0.000 C 
BRANCH  26  27
ATOM     27  C   UNL     1     142.422 120.133 119.970  0.00  0.00    +0.000 A 
ATOM     28  C   UNL     1     142.938 120.248 119.380  0.00  0.00    +0.000 A 
ATOM     29  C   UNL     1     141.967 119.477 119.976  0.00  0.00    +0.000 A 
ATOM     30  C   UNL     1     142.999 119.715 118.799  0.00  0.00    +0.000 A 
ATOM     31  C   UNL     1     142.032 118.951 119.397  0.00  0.00    +0.000 A 
ATOM     32  C   UNL     1     142.550 119.067 118.803  0.00  0.00    +0.000 A 
ENDBRANCH  26  27
ENDBRANCH  21  26
ENDBRANCH  20  22
ENDBRANCH  18  20
ENDBRANCH   1  18
BRANCH   2  33
ATOM     33  C   UNL     1     143.323 119.714 126.194  0.00  0.00    +0.000 C 
ATOM     34  O   UNL     1     143.616 120.350 126.540  0.00  0.00    +0.000 OA
BRANCH  33  35
ATOM     35  O   UNL     1     143.471 118.995 126.489  0.00  0.00    +0.000 OA
ATOM     36  C   UNL     1     143.556 118.975 127.274  0.00  0.00    +0.000 C 
ENDBRANCH  33  35
ENDBRANCH   2  33
TORSDOF 9
ENDMDL
MODEL 16
REMARK VINA RESULT:      -8.3     25.192     27.018
REMARK  Name = 
REMARK  9 active torsions:
REMARK  status: ('A' for Active; 'I' for Inactive)
REMARK    1  A    between atoms: C_1  and  C_6
REMARK    2  A    between atoms: C_2  and  C_10
REMARK    3  A    between atoms: C_3  and  C_9
REMARK    4  A    between atoms: C_6  and  O_13
REMARK    5  A    between atoms: N_8  and  C_12
REMARK    6  A    between atoms: C_10  and  O_24
REMARK    7  A    between atoms: N_11  and  C_21
REMARK    8  A    between atoms: O_13  and  C_18
REMARK    9  A    between atoms: C_21  and  C_28
REMARK                            x       y       z     vdW  Elec       q    Type
REMARK                         _______ _______ _______ _____ _____    ______ ____
ROOT
ATOM      1  C   UNL     1     105.404 142.230 200.801  0.00  0.00    +0.000 C 
ATOM      2  C   UNL     1     105.965 143.445 201.164  0.00  0.00    +0.000 C 
ATOM      3  C   UNL     1     105.780 142.904 200.596  0.00  0.00    +0.000 C 
ATOM      4  C   UNL     1     105.221 142.105 201.548  0.00  0.00    +0.000 C 
ATOM      5  C   UNL     1     105.776 143.307 201.903  0.00  0.00    +0.000 C 
ATOM      6  N   UNL     1     105.400 142.632 202.108  0.00  0.00    +0.000 NA
ATOM      7  C   UNL     1     105.952 143.827 202.460  0.00  0.00    +0.000 C 
ATOM      8  C   UNL     1     104.851 141.442 201.749  0.00  0.00    +0.000 C 
ENDROOT
BRANCH   3   9
ATOM      9  C   UNL     1     105.974 143.047 199.833  0.00  0.00    +0.000 A 
ATOM     10  C   UNL     1     106.858 142.998 198.803  0.00  0.00    +0.000 A 
ATOM     11  C   UNL     1     106.679 142.853 199.552  0.00  0.00    +0.000 A 
ATOM     12  C   UNL     1     105.453 143.385 199.366  0.00  0.00    +0.000 A 
ATOM     13  C   UNL     1     106.333 143.338 198.336  0.00  0.00    +0.000 A 
ATOM     14  C   UNL     1     105.625 143.534 198.615  0.00  0.00    +0.000 A 
BRANCH  10  15
ATOM     15  N   UNL     1     107.559 142.804 198.526  0.00  0.00    +0.000 N 
ATOM     16  O   UNL     1     108.063 143.358 198.311  0.00  0.00    +0.000 OA
ATOM     17  O   UNL     1     107.761 142.046 198.462  0.00  0.00    +0.000 OA
ENDBRANCH  10  15
ENDBRANCH   3   9
BRANCH   1  18
ATOM     18  C   UNL     1     105.231 141.712 200.232  0.00  0.00    +0.000 C 
ATOM     19  O   UNL     1     104.537 141.891 199.589  0.00  0.00    +0.000 OA
BRANCH  18  20
ATOM     20  O   UNL     1     105.602 141.022 200.143  0.00  0.00    +0.000 OA
BRANCH  20  22
ATOM     21  N   UNL     1     104.840 139.663 198.867  0.00  0.00    +0.000 NA
ATOM     22  C   UNL     1     105.169 140.533 199.706  0.00  0.00    +0.000 C 
ATOM     23  C   UNL     1     105.412 140.054 199.188  0.00  0.00    +0.000 C 
ATOM     24  C   UNL     1     104.354 140.449 199.730  0.00  0.00    +0.000 C 
ATOM     25  C   UNL     1     104.143 139.882 199.184  0.00  0.00    +0.000 C 
BRANCH  21  26
ATOM     26  C   UNL     1     104.934 139.118 198.303  0.00  0.00    +0.000 C 
BRANCH  26  27
ATOM     27  C   UNL     1     104.925 139.459 197.595  0.00  0.00    +0.000 A 
ATOM     28  C   UNL     1     105.596 139.736 197.276  0.00  0.00    +0.000 A 
ATOM     29  C   UNL     1     104.238 139.527 197.195  0.00  0.00    +0.000 A 
ATOM     30  C   UNL     1     105.582 140.078 196.562  0.00  0.00    +0.000 A 
ATOM     31  C   UNL     1     104.230 139.867 196.488  0.00  0.00    +0.000 A 
ATOM     32  C   UNL     1     104.904 140.146 196.166  0.00  0.00    +0.000 A 
ENDBRANCH  26  27
ENDBRANCH  21  26
ENDBRANCH  20  22
ENDBRANCH  18  20
ENDBRANCH   1  18
BRANCH   2  33
ATOM     33  C   UNL     1     106.339 144.119 200.967  0.00  0.00    +0.000 C 
ATOM     34  O   UNL     1     105.914 144.690 200.646  0.00  0.00    +0.000 OA
BRANCH  33  35
ATOM     35  O   UNL     1     107.115 144.218 201.087  0.00  0.00    +0.000 OA
ATOM     36  C   UNL     1     107.328 144.960 201.256  0.00  0.00    +0.000 C 
ENDBRANCH  33  35
ENDBRANCH   2  33
TORSDOF 9
ENDMDL
MODEL 17
REMARK VINA RESULT:      -8.3     67.395     68.926
REMARK  Name = 
REMARK  9 active torsions:
REMARK  status: ('A' for Active; 'I' for Inactive)
REMARK    1  A    between atoms: C_1  and  C_6
REMARK    2  A    between atoms: C_2  and  C_10
REMARK    3  A    between atoms: C_3  and  C_9
REMARK    4  A    between atoms: C_6  and  O_13
REMARK    5  A    between atoms: N_8  and  C_12
REMARK    6  A    between atoms: C_10  and  O_24
REMARK    7  A    between atoms: N_11  and  C_21
REMARK    8  A    between atoms: O_13  and  C_18
REMARK    9  A    between atoms: C_21  and  C_28
REMARK                            x       y       z     vdW  Elec       q    Type
REMARK                         _______ _______ _______ _____ _____    ______ ____
ROOT
ATOM      1  C   UNL     1     144.030 120.748 123.692  0.00  0.00    +0.000 C 
ATOM      2  C   UNL     1     144.559 120.537 124.956  0.00  0.00    +0.000 C 
ATOM      3  C   UNL     1     144.015 120.359 124.389  0.00  0.00    +0.000 C 
ATOM      4  C   UNL     1     144.572 121.295 123.570  0.00  0.00    +0.000 C 
ATOM      5  C   UNL     1     145.092 121.083 124.820  0.00  0.00    +0.000 C 
ATOM      6  N   UNL     1     145.107 121.473 124.122  0.00  0.00    +0.000 NA
ATOM      7  C   UNL     1     145.623 121.262 125.365  0.00  0.00    +0.000 C 
ATOM      8  C   UNL     1     144.586 121.677 122.884  0.00  0.00    +0.000 C 
ENDROOT
BRANCH   3   9
ATOM      9  C   UNL     1     143.465 119.795 124.530  0.00  0.00    +0.000 A 
ATOM     10  C   UNL     1     142.228 119.419 124.947  0.00  0.00    +0.000 A 
ATOM     11  C   UNL     1     142.758 119.980 124.813  0.00  0.00    +0.000 A 
ATOM     12  C   UNL     1     143.638 119.052 124.383  0.00  0.00    +0.000 A 
ATOM     13  C   UNL     1     142.404 118.673 124.798  0.00  0.00    +0.000 A 
ATOM     14  C   UNL     1     143.113 118.484 124.515  0.00  0.00    +0.000 A 
BRANCH  10  15
ATOM     15  N   UNL     1     141.527 119.606 125.227  0.00  0.00    +0.000 N 
ATOM     16  O   UNL     1     141.452 119.859 125.960  0.00  0.00    +0.000 OA
ATOM     17  O   UNL     1     140.890 119.538 124.770  0.00  0.00    +0.000 OA
ENDBRANCH  10  15
ENDBRANCH   3   9
BRANCH   1  18
ATOM     18  C   UNL     1     143.490 120.561 123.149  0.00  0.00    +0.000 C 
ATOM     19  O   UNL     1     142.654 121.037 123.093  0.00  0.00    +0.000 OA
BRANCH  18  20
ATOM     20  O   UNL     1     143.585 119.983 122.620  0.00  0.00    +0.000 OA
BRANCH  20  22
ATOM     21  N   UNL     1     143.018 120.380 120.729  0.00  0.00    +0.000 NA
ATOM     22  C   UNL     1     143.226 120.169 121.946  0.00  0.00    +0.000 C 
ATOM     23  C   UNL     1     143.524 120.172 121.262  0.00  0.00    +0.000 C 
ATOM     24  C   UNL     1     142.445 120.399 121.856  0.00  0.00    +0.000 C 
ATOM     25  C   UNL     1     142.312 120.536 121.064  0.00  0.00    +0.000 C 
BRANCH  21  26
ATOM     26  C   UNL     1     143.179 120.433 119.957  0.00  0.00    +0.000 C 
BRANCH  26  27
ATOM     27  C   UNL     1     142.900 119.803 119.580  0.00  0.00    +0.000 A 
ATOM     28  C   UNL     1     142.149 119.789 119.327  0.00  0.00    +0.000 A 
ATOM     29  C   UNL     1     143.374 119.175 119.450  0.00  0.00    +0.000 A 
ATOM     30  C   UNL     1     141.872 119.152 118.947  0.00  0.00    +0.000 A 
ATOM     31  C   UNL     1     143.095 118.545 119.073  0.00  0.00    +0.000 A 
ATOM     32  C   UNL     1     142.340 118.531 118.818  0.00  0.00    +0.000 A 
ENDBRANCH  26  27
ENDBRANCH  21  26
ENDBRANCH  20  22
ENDBRANCH  18  20
ENDBRANCH   1  18
BRANCH   2  33
ATOM     33  C   UNL     1     144.550 120.153 125.653  0.00  0.00    +0.000 C 
ATOM     34  O   UNL     1     144.856 119.436 125.676  0.00  0.00    +0.000 OA
BRANCH  33  35
ATOM     35  O   UNL     1     144.243 120.478 126.307  0.00  0.00    +0.000 OA
ATOM     36  C   UNL     1     144.578 120.237 126.980  0.00  0.00    +0.000 C 
ENDBRANCH  33  35
ENDBRANCH   2  33
TORSDOF 9
ENDMDL
MODEL 18
REMARK VINA RESULT:      -8.2      2.386      4.433
REMARK  Name = 
REMARK  9 active torsions:
REMARK  status: ('A' for Active; 'I' for Inactive)
REMARK    1  A    between atoms: C_1  and  C_6
REMARK    2  A    between atoms: C_2  and  C_10
REMARK    3  A    between atoms: C_3  and  C_9
REMARK    4  A    between atoms: C_6  and  O_13
REMARK    5  A    between atoms: N_8  and  C_12
REMARK    6  A    between atoms: C_10  and  O_24
REMARK    7  A    between atoms: N_11  and  C_21
REMARK    8  A    between atoms: O_13  and  C_18
REMARK    9  A    between atoms: C_21  and  C_28
REMARK                            x       y       z     vdW  Elec       q    Type
REMARK                         _______ _______ _______ _____ _____    ______ ____
ROOT
ATOM      1  C   UNL     1     129.394 128.091 189.478  0.00  0.00    +0.000 C 
ATOM      2  C   UNL     1     129.084 127.755 190.788  0.00  0.00    +0.000 C 
ATOM      3  C   UNL     1     128.869 128.077 190.080  0.00  0.00    +0.000 C 
ATOM      4  C   UNL     1     130.107 127.794 189.584  0.00  0.00    +0.000 C 
ATOM      5  C   UNL     1     129.797 127.463 190.877  0.00  0.00    +0.000 C 
ATOM      6  N   UNL     1     130.322 127.477 190.274  0.00  0.00    +0.000 NA
ATOM      7  C   UNL     1     130.012 127.149 191.560  0.00  0.00    +0.000 C 
ATOM      8  C   UNL     1     130.622 127.808 188.991  0.00  0.00    +0.000 C 
ENDROOT
BRANCH   3   9
ATOM      9  C   UNL     1     128.134 128.379 189.988  0.00  0.00    +0.000 A 
ATOM     10  C   UNL     1     127.258 129.414 190.055  0.00  0.00    +0.000 A 
ATOM     11  C   UNL     1     127.981 129.130 190.148  0.00  0.00    +0.000 A 
ATOM     12  C   UNL     1     127.563 127.915 189.736  0.00  0.00    +0.000 A 
ATOM     13  C   UNL     1     126.686 128.947 189.801  0.00  0.00    +0.000 A 
ATOM     14  C   UNL     1     126.836 128.192 189.639  0.00  0.00    +0.000 A 
BRANCH  10  15
ATOM     15  N   UNL     1     127.109 130.160 190.214  0.00  0.00    +0.000 N 
ATOM     16  O   UNL     1     126.612 130.565 189.771  0.00  0.00    +0.000 OA
ATOM     17  O   UNL     1     127.460 130.510 190.826  0.00  0.00    +0.000 OA
ENDBRANCH  10  15
ENDBRANCH   3   9
BRANCH   1  18
ATOM     18  C   UNL     1     129.167 128.410 188.794  0.00  0.00    +0.000 C 
ATOM     19  O   UNL     1     128.638 127.910 188.163  0.00  0.00    +0.000 OA
BRANCH  18  20
ATOM     20  O   UNL     1     129.348 129.145 188.574  0.00  0.00    +0.000 OA
BRANCH  20  22
ATOM     21  N   UNL     1     129.395 129.671 186.630  0.00  0.00    +0.000 NA
ATOM     22  C   UNL     1     129.370 129.198 187.789  0.00  0.00    +0.000 C 
ATOM     23  C   UNL     1     129.370 129.821 187.378  0.00  0.00    +0.000 C 
ATOM     24  C   UNL     1     129.397 128.574 187.259  0.00  0.00    +0.000 C 
ATOM     25  C   UNL     1     129.414 128.884 186.506  0.00  0.00    +0.000 C 
BRANCH  21  26
ATOM     26  C   UNL     1     129.401 130.223 186.065  0.00  0.00    +0.000 C 
BRANCH  26  27
ATOM     27  C   UNL     1     130.132 130.328 185.797  0.00  0.00    +0.000 A 
ATOM     28  C   UNL     1     130.406 129.887 185.198  0.00  0.00    +0.000 A 
ATOM     29  C   UNL     1     130.601 130.880 186.131  0.00  0.00    +0.000 A 
ATOM     30  C   UNL     1     131.143 129.997 184.932  0.00  0.00    +0.000 A 
ATOM     31  C   UNL     1     131.332 130.985 185.863  0.00  0.00    +0.000 A 
ATOM     32  C   UNL     1     131.608 130.543 185.261  0.00  0.00    +0.000 A 
ENDBRANCH  26  27
ENDBRANCH  21  26
ENDBRANCH  20  22
ENDBRANCH  18  20
ENDBRANCH   1  18
BRANCH   2  33
ATOM     33  C   UNL     1     128.566 127.738 191.392  0.00  0.00    +0.000 C 
ATOM     34  O   UNL     1     128.520 128.370 191.848  0.00  0.00    +0.000 OA
BRANCH  33  35
ATOM     35  O   UNL     1     128.110 127.107 191.534  0.00  0.00    +0.000 OA
ATOM     36  C   UNL     1     127.957 126.980 192.299  0.00  0.00    +0.000 C 
ENDBRANCH  33  35
ENDBRANCH   2  33
TORSDOF 9
ENDMDL
MODEL 19
REMARK VINA RESULT:      -8.1     58.146     59.824
REMARK  Name = 
REMARK  9 active torsions:
REMARK  status: ('A' for Active; 'I' for Inactive)
REMARK    1  A    between atoms: C_1  and  C_6
REMARK    2  A    between atoms: C_2  and  C_10
REMARK    3  A    between atoms: C_3  and  C_9
REMARK    4  A    between atoms: C_6  and  O_13
REMARK    5  A    between atoms: N_8  and  C_12
REMARK    6  A    between atoms: C_10  and  O_24
REMARK    7  A    between atoms: N_11  and  C_21
REMARK    8  A    between atoms: O_13  and  C_18
REMARK    9  A    between atoms: C_21  and  C_28
REMARK                            x       y       z     vdW  Elec       q    Type
REMARK                         _______ _______ _______ _____ _____    ______ ____
ROOT
ATOM      1  C   UNL     1     155.005 131.502 136.422  0.00  0.00    +0.000 C 
ATOM      2  C   UNL     1     155.890 131.706 135.373  0.00  0.00    +0.000 C 
ATOM      3  C   UNL     1     155.242 131.936 135.794  0.00  0.00    +0.000 C 
ATOM      4  C   UNL     1     155.405 130.862 136.618  0.00  0.00    +0.000 C 
ATOM      5  C   UNL     1     156.276 131.067 135.581  0.00  0.00    +0.000 C 
ATOM      6  N   UNL     1     156.040 130.633 136.208  0.00  0.00    +0.000 NA
ATOM      7  C   UNL     1     156.906 130.837 135.177  0.00  0.00    +0.000 C 
ATOM      8  C   UNL     1     155.171 130.436 137.235  0.00  0.00    +0.000 C 
ENDROOT
BRANCH   3   9
ATOM      9  C   UNL     1     154.844 132.596 135.580  0.00  0.00    +0.000 A 
ATOM     10  C   UNL     1     154.626 133.933 135.667  0.00  0.00    +0.000 A 
ATOM     11  C   UNL     1     155.023 133.294 135.884  0.00  0.00    +0.000 A 
ATOM     12  C   UNL     1     154.269 132.539 135.059  0.00  0.00    +0.000 A 
ATOM     13  C   UNL     1     154.048 133.874 135.144  0.00  0.00    +0.000 A 
ATOM     14  C   UNL     1     153.866 133.174 134.836  0.00  0.00    +0.000 A 
BRANCH  10  15
ATOM     15  N   UNL     1     154.806 134.626 135.971  0.00  0.00    +0.000 N 
ATOM     16  O   UNL     1     154.611 134.795 136.707  0.00  0.00    +0.000 OA
ATOM     17  O   UNL     1     155.186 135.160 135.536  0.00  0.00    +0.000 OA
ENDBRANCH  10  15
ENDBRANCH   3   9
BRANCH   1  18
ATOM     18  C   UNL     1     154.370 131.743 136.822  0.00  0.00    +0.000 C 
ATOM     19  O   UNL     1     154.436 132.422 137.501  0.00  0.00    +0.000 OA
BRANCH  18  20
ATOM     20  O   UNL     1     153.645 131.455 136.702  0.00  0.00    +0.000 OA
BRANCH  20  22
ATOM     21  N   UNL     1     152.163 131.944 137.975  0.00  0.00    +0.000 NA
ATOM     22  C   UNL     1     153.176 131.636 137.307  0.00  0.00    +0.000 C 
ATOM     23  C   UNL     1     152.447 131.791 137.283  0.00  0.00    +0.000 C 
ATOM     24  C   UNL     1     153.396 131.692 138.095  0.00  0.00    +0.000 C 
ATOM     25  C   UNL     1     152.735 131.892 138.527  0.00  0.00    +0.000 C 
BRANCH  21  26
ATOM     26  C   UNL     1     151.407 132.126 138.116  0.00  0.00    +0.000 C 
BRANCH  26  27
ATOM     27  C   UNL     1     151.280 132.886 137.966  0.00  0.00    +0.000 A 
ATOM     28  C   UNL     1     151.478 133.439 138.499  0.00  0.00    +0.000 A 
ATOM     29  C   UNL     1     150.950 133.104 137.273  0.00  0.00    +0.000 A 
ATOM     30  C   UNL     1     151.348 134.203 138.342  0.00  0.00    +0.000 A 
ATOM     31  C   UNL     1     150.822 133.865 137.123  0.00  0.00    +0.000 A 
ATOM     32  C   UNL     1     151.022 134.420 137.658  0.00  0.00    +0.000 A 
ENDBRANCH  26  27
ENDBRANCH  21  26
ENDBRANCH  20  22
ENDBRANCH  18  20
ENDBRANCH   1  18
BRANCH   2  33
ATOM     33  C   UNL     1     156.132 132.133 134.747  0.00  0.00    +0.000 C 
ATOM     34  O   UNL     1     155.744 132.044 134.075  0.00  0.00    +0.000 OA
BRANCH  33  35
ATOM     35  O   UNL     1     156.743 132.635 134.792  0.00  0.00    +0.000 OA
ATOM     36  C   UNL     1     157.154 132.710 134.122  0.00  0.00    +0.000 C 
ENDBRANCH  33  35
ENDBRANCH   2  33
TORSDOF 9
ENDMDL
MODEL 20
REMARK VINA RESULT:      -8.1      1.993      4.399
REMARK  Name = 
REMARK  9 active torsions:
REMARK  status: ('A' for Active; 'I' for Inactive)
REMARK    1  A    between atoms: C_1  and  C_6
REMARK    2  A    between atoms: C_2  and  C_10
REMARK    3  A    between atoms: C_3  and  C_9
REMARK    4  A    between atoms: C_6  and  O_13
REMARK    5  A    between atoms: N_8  and  C_12
REMARK    6  A    between atoms: C_10  and  O_24
REMARK    7  A    between atoms: N_11  and  C_21
REMARK    8  A    between atoms: O_13  and  C_18
REMARK    9  A    between atoms: C_21  and  C_28
REMARK                            x       y       z     vdW  Elec       q    Type
REMARK                         _______ _______ _______ _____ _____    ______ ____
ROOT
ATOM      1  C   UNL     1     127.575 129.283 188.751  0.00  0.00    +0.000 C 
ATOM      2  C   UNL     1     126.509 129.320 189.638  0.00  0.00    +0.000 C 
ATOM      3  C   UNL     1     127.304 129.304 189.502  0.00  0.00    +0.000 C 
ATOM      4  C   UNL     1     127.067 129.279 188.160  0.00  0.00    +0.000 C 
ATOM      5  C   UNL     1     126.017 129.315 189.039  0.00  0.00    +0.000 C 
ATOM      6  N   UNL     1     126.288 129.295 188.288  0.00  0.00    +0.000 NA
ATOM      7  C   UNL     1     125.245 129.331 189.163  0.00  0.00    +0.000 C 
ATOM      8  C   UNL     1     127.335 129.259 187.422  0.00  0.00    +0.000 C 
ENDROOT
BRANCH   3   9
ATOM      9  C   UNL     1     127.812 129.308 190.120  0.00  0.00    +0.000 A 
ATOM     10  C   UNL     1     128.573 128.657 191.037  0.00  0.00    +0.000 A 
ATOM     11  C   UNL     1     128.076 128.641 190.432  0.00  0.00    +0.000 A 
ATOM     12  C   UNL     1     128.046 129.989 190.413  0.00  0.00    +0.000 A 
ATOM     13  C   UNL     1     128.807 129.342 191.330  0.00  0.00    +0.000 A 
ATOM     14  C   UNL     1     128.544 130.015 191.019  0.00  0.00    +0.000 A 
BRANCH  10  15
ATOM     15  N   UNL     1     128.834 127.992 191.345  0.00  0.00    +0.000 N 
ATOM     16  O   UNL     1     128.383 127.579 191.827  0.00  0.00    +0.000 OA
ATOM     17  O   UNL     1     129.557 127.734 191.170  0.00  0.00    +0.000 OA
ENDBRANCH  10  15
ENDBRANCH   3   9
BRANCH   1  18
ATOM     18  C   UNL     1     128.355 129.268 188.637  0.00  0.00    +0.000 C 
ATOM     19  O   UNL     1     128.825 128.436 188.516  0.00  0.00    +0.000 OA
BRANCH  18  20
ATOM     20  O   UNL     1     128.805 129.915 188.614  0.00  0.00    +0.000 OA
BRANCH  20  22
ATOM     21  N   UNL     1     130.318 130.047 187.291  0.00  0.00    +0.000 NA
ATOM     22  C   UNL     1     129.405 129.813 188.115  0.00  0.00    +0.000 C 
ATOM     23  C   UNL     1     129.760 130.339 187.722  0.00  0.00    +0.000 C 
ATOM     24  C   UNL     1     129.765 129.102 187.924  0.00  0.00    +0.000 C 
ATOM     25  C   UNL     1     130.358 129.257 187.388  0.00  0.00    +0.000 C 
BRANCH  21  26
ATOM     26  C   UNL     1     130.785 130.473 186.818  0.00  0.00    +0.000 C 
BRANCH  26  27
ATOM     27  C   UNL     1     130.483 130.500 186.093  0.00  0.00    +0.000 A 
ATOM     28  C   UNL     1     130.041 131.118 185.866  0.00  0.00    +0.000 A 
ATOM     29  C   UNL     1     130.623 129.904 185.582  0.00  0.00    +0.000 A 
ATOM     30  C   UNL     1     129.740 131.140 185.135  0.00  0.00    +0.000 A 
ATOM     31  C   UNL     1     130.321 129.931 184.858  0.00  0.00    +0.000 A 
ATOM     32  C   UNL     1     129.877 130.551 184.629  0.00  0.00    +0.000 A 
ENDBRANCH  26  27
ENDBRANCH  21  26
ENDBRANCH  20  22
ENDBRANCH  18  20
ENDBRANCH   1  18
BRANCH   2  33
ATOM     33  C   UNL     1     126.232 129.340 190.383  0.00  0.00    +0.000 C 
ATOM     34  O   UNL     1     126.138 128.659 190.754  0.00  0.00    +0.000 OA
BRANCH  33  35
ATOM     35  O   UNL     1     126.054 130.021 190.746  0.00  0.00    +0.000 OA
ATOM     36  C   UNL     1     125.468 129.968 191.273  0.00  0.00    +0.000 C 
ENDBRANCH  33  35
ENDBRANCH   2  33
TORSDOF 9
ENDMDL
