REMARK  Name = 
REMARK  10 active torsions:
REMARK  status: ('A' for Active; 'I' for Inactive)
REMARK    1  A    between atoms: C_1  and  C_6
REMARK    2  A    between atoms: C_2  and  C_10
REMARK    3  A    between atoms: C_3  and  C_9
REMARK    4  A    between atoms: C_6  and  O_13
REMARK    5  A    between atoms: N_8  and  C_11
REMARK    6  A    between atoms: C_10  and  O_18
REMARK    7  A    between atoms: O_13  and  C_22
REMARK    8  A    between atoms: O_18  and  C_26
REMARK    9  A    between atoms: O_25  and  C_27
REMARK   10  A    between atoms: C_26  and  C_27
REMARK                            x       y       z     vdW  Elec       q    Type
REMARK                         _______ _______ _______ _____ _____    ______ ____
ROOT
ATOM      1  C   UNL     1       3.862  -6.079   0.000  0.00  0.00    +0.000 C 
ATOM      2  C   UNL     1       5.079  -6.079   0.000  0.00  0.00    +0.000 C 
ATOM      3  C   UNL     1       4.467  -5.717   0.000  0.00  0.00    +0.000 C 
ATOM      4  C   UNL     1       3.862  -6.787   0.000  0.00  0.00    +0.000 C 
ATOM      5  C   UNL     1       5.079  -6.787   0.000  0.00  0.00    +0.000 C 
ATOM      6  N   UNL     1       4.467  -7.138   0.000  0.00  0.00    +0.000 NA
ATOM      7  C   UNL     1       3.225  -7.117   0.000  0.00  0.00    +0.000 C 
ATOM      8  C   UNL     1       5.700  -7.138   0.000  0.00  0.00    +0.000 C 
ENDROOT
BRANCH   3   9
ATOM      9  C   UNL     1       4.467  -5.004   0.000  0.00  0.00    +0.000 A 
ATOM     10  C   UNL     1       5.092  -3.967   0.000  0.00  0.00    +0.000 A 
ATOM     11  C   UNL     1       5.092  -4.654   0.000  0.00  0.00    +0.000 A 
ATOM     12  C   UNL     1       3.854  -4.654   0.000  0.00  0.00    +0.000 A 
ATOM     13  C   UNL     1       4.467  -3.592   0.000  0.00  0.00    +0.000 A 
ATOM     14  C   UNL     1       3.854  -3.950   0.000  0.00  0.00    +0.000 A 
BRANCH  10  15
ATOM     15  N   UNL     1       5.725  -3.600   0.000  0.00  0.00    +0.000 N 
ATOM     16  O   UNL     1       6.342  -4.004   0.000  0.00  0.00    +0.000 OA
ATOM     17  O   UNL     1       5.725  -2.892   0.000  0.00  0.00    +0.000 OA
ENDBRANCH  10  15
ENDBRANCH   3   9
BRANCH   1  18
ATOM     18  C   UNL     1       3.242  -5.729   0.000  0.00  0.00    +0.000 C 
ATOM     19  O   UNL     1       3.242  -5.017   0.000  0.00  0.00    +0.000 OA
BRANCH  18  20
ATOM     20  O   UNL     1       2.629  -6.092   0.000  0.00  0.00    +0.000 OA
BRANCH  20  21
ATOM     21  C   UNL     1       2.004  -5.729   0.000  0.00  0.00    +0.000 C 
ATOM     22  C   UNL     1       1.400  -6.079   0.000  0.00  0.00    +0.000 C 
ATOM     23  C   UNL     1       2.004  -5.017   0.000  0.00  0.00    +0.000 C 
ENDBRANCH  20  21
ENDBRANCH  18  20
ENDBRANCH   1  18
BRANCH   2  24
ATOM     24  C   UNL     1       5.688  -5.742   0.000  0.00  0.00    +0.000 C 
ATOM     25  O   UNL     1       5.688  -5.054   0.000  0.00  0.00    +0.000 OA
BRANCH  24  26
ATOM     26  O   UNL     1       6.304  -6.112   0.000  0.00  0.00    +0.000 OA
BRANCH  26  27
ATOM     27  C   UNL     1       6.912  -5.750   0.000  0.00  0.00    +0.000 C 
BRANCH  27  28
ATOM     28  C   UNL     1       7.529  -6.112   0.000  0.00  0.00    +0.000 C 
BRANCH  28  29
ATOM     29  O   UNL     1       8.137  -5.750   0.000  0.00  0.00    +0.000 OA
ATOM     30  C   UNL     1       8.742  -6.092   0.000  0.00  0.00    +0.000 C 
ENDBRANCH  28  29
ENDBRANCH  27  28
ENDBRANCH  26  27
ENDBRANCH  24  26
ENDBRANCH   2  24
TORSDOF 10
