
     RDKit          2D

 21 22  0  0  1  0  0  0  0  0999 V2000
   -1.9833    0.4833    0.0000 N   0  0  0  0  0  0  0  0  0  0  0  0
   -1.5458   -0.2875    0.0000 C   0  0  0  0  0  0  0  0  0  0  0  0
   -2.8958    0.4833    0.0000 N   0  0  0  0  0  0  0  0  0  0  0  0
    3.3917    0.4833    0.0000 C   0  0  0  0  0  0  0  0  0  0  0  0
   -3.3208   -0.2875    0.0000 C   0  0  0  0  0  0  0  0  0  0  0  0
    2.5042    0.4833    0.0000 N   0  0  0  0  0  0  0  0  0  0  0  0
    4.2792   -1.0542    0.0000 N   0  0  0  0  0  0  0  0  0  0  0  0
    4.2792    2.0208    0.0000 N   0  0  0  0  0  0  0  0  0  0  0  0
   -1.9833   -1.0542    0.0000 C   0  0  0  0  0  0  0  0  0  0  0  0
    3.8375   -0.2875    0.0000 C   0  0  0  0  0  0  0  0  0  0  0  0
    3.8375    1.2458    0.0000 C   0  0  0  0  0  0  0  0  0  0  0  0
   -0.6375   -0.2875    0.0000 C   0  0  0  0  0  0  0  0  0  0  0  0
   -2.8958   -1.0542    0.0000 C   0  0  0  0  0  0  0  0  0  0  0  0
    2.0500   -0.2875    0.0000 N   0  0  0  0  0  0  0  0  0  0  0  0
   -4.2333   -0.2875    0.0000 O   0  0  0  0  0  0  0  0  0  0  0  0
   -0.2083   -1.0542    0.0000 C   0  0  0  0  0  0  0  0  0  0  0  0
   -0.2083    0.4833    0.0000 C   0  0  0  0  0  0  0  0  0  0  0  0
    1.1375   -0.2875    0.0000 C   0  0  0  0  0  0  0  0  0  0  0  0
    0.7042    0.4833    0.0000 C   0  0  0  0  0  0  0  0  0  0  0  0
    0.7042   -1.0542    0.0000 C   0  0  0  0  0  0  0  0  0  0  0  0
   -1.3333   -1.4792    0.0000 C   0  0  0  0  0  0  0  0  0  0  0  0
  2  1  2  0
  3  1  1  0
  4  6  2  0
  5  3  1  0
  6 14  1  0
  7 10  3  0
  8 11  3  0
  9  2  1  0
 10  4  1  0
 11  4  1  0
 12  2  1  0
 13  5  1  0
 14 18  1  0
 15  5  2  0
 16 12  2  0
 17 12  1  0
 18 19  1  0
 19 17  2  0
 20 16  1  0
  9 21  1  6
  9 13  1  0
 20 18  2  0
M  END


> <chembl_id>
CHEMBL2051955

> <chembl_pref_name>
LEVOSIMENDAN
