
     RDKit          2D

 15 16  0  0  0  0  0  0  0  0999 V2000
   -1.6333   -1.8667    0.0000 O   0  0  0  0  0  0  0  0  0  0  0  0
    1.4375   -1.8917    0.0000 C   0  0  0  0  0  0  0  0  0  0  0  0
   -1.6333   -0.1375    0.0000 O   0  0  0  0  0  0  0  0  0  0  0  0
   -2.3708   -1.4292    0.0000 C   0  0  0  0  0  0  0  0  0  0  0  0
   -2.3708   -0.5792    0.0000 C   0  0  0  0  0  0  0  0  0  0  0  0
    1.4375   -2.7417    0.0000 N   0  0  0  0  0  0  0  0  0  0  0  0
    0.6750   -1.4500    0.0000 N   0  0  0  0  0  0  0  0  0  0  0  0
   -0.8583   -1.4292    0.0000 C   0  0  0  0  0  0  0  0  0  0  0  0
   -0.8583   -0.5792    0.0000 C   0  0  0  0  0  0  0  0  0  0  0  0
    2.1625   -1.4500    0.0000 N   0  0  0  0  0  0  0  0  0  0  0  0
   -0.0833   -1.8917    0.0000 C   0  0  0  0  0  0  0  0  0  0  0  0
   -3.1083   -1.8667    0.0000 C   0  0  0  0  0  0  0  0  0  0  0  0
   -3.1083   -0.1375    0.0000 C   0  0  0  0  0  0  0  0  0  0  0  0
   -3.8833   -1.4292    0.0000 C   0  0  0  0  0  0  0  0  0  0  0  0
   -3.8833   -0.5792    0.0000 C   0  0  0  0  0  0  0  0  0  0  0  0
  2  7  1  0
  3  9  1  0
  4  1  1  0
  5  4  2  0
  6  2  2  0
  7 11  1  0
  8  1  1  0
  9  8  1  0
 10  2  1  0
 11  8  1  0
 12  4  1  0
 13  5  1  0
 14 12  2  0
 15 14  1  0
  5  3  1  0
 13 15  2  0
M  END


> <chembl_id>
CHEMBL76725

> <chembl_pref_name>
GUANOXAN
