
     RDKit          2D

 31 33  0  0  0  0  0  0  0  0999 V2000
    3.2375   -4.1500    0.0000 C   0  0  0  0  0  0  0  0  0  0  0  0
    3.2375   -4.8542    0.0000 N   0  0  0  0  0  0  0  0  0  0  0  0
    2.0000   -4.1500    0.0000 C   0  0  0  0  0  0  0  0  0  0  0  0
    2.0000   -4.8542    0.0000 C   0  0  0  0  0  0  0  0  0  0  0  0
    2.6167   -3.7917    0.0000 N   0  0  0  0  0  0  0  0  0  0  0  0
    2.6167   -5.2000    0.0000 C   0  0  0  0  0  0  0  0  0  0  0  0
    1.3750   -3.7917    0.0000 C   0  0  0  0  0  0  0  0  0  0  0  0
    0.7542   -4.1500    0.0000 C   0  0  0  0  0  0  0  0  0  0  0  0
    3.8542   -3.7792    0.0000 N   0  0  0  0  0  0  0  0  0  0  0  0
    5.6792   -2.6917    0.0000 C   0  0  0  0  0  0  0  0  0  0  0  0
    5.0667   -3.0542    0.0000 N   0  0  0  0  0  0  0  0  0  0  0  0
    1.3750   -5.2000    0.0000 C   0  0  0  0  0  0  0  0  0  0  0  0
    0.7542   -4.8542    0.0000 C   0  0  0  0  0  0  0  0  0  0  0  0
    6.3000   -3.0250    0.0000 O   0  0  0  0  0  0  0  0  0  0  0  0
    4.4792   -4.1250    0.0000 C   0  0  0  0  0  0  0  0  0  0  0  0
    3.8417   -3.0667    0.0000 C   0  0  0  0  0  0  0  0  0  0  0  0
    5.0792   -3.7750    0.0000 C   0  0  0  0  0  0  0  0  0  0  0  0
    4.4500   -2.7125    0.0000 C   0  0  0  0  0  0  0  0  0  0  0  0
    5.6875   -2.0000    0.0000 O   0  0  0  0  0  0  0  0  0  0  0  0
    2.6167   -5.9042    0.0000 N   0  0  0  0  0  0  0  0  0  0  0  0
    7.5417   -3.0125    0.0000 C   0  0  0  0  0  0  0  0  0  0  0  0
    1.3750   -3.0792    0.0000 O   0  0  0  0  0  0  0  0  0  0  0  0
    0.1250   -3.7625    0.0000 O   0  0  0  0  0  0  0  0  0  0  0  0
    6.9042   -2.6667    0.0000 C   0  0  0  0  0  0  0  0  0  0  0  0
    0.1375   -5.2000    0.0000 O   0  0  0  0  0  0  0  0  0  0  0  0
    7.5417   -3.7042    0.0000 O   0  0  0  0  0  0  0  0  0  0  0  0
    8.3167   -3.1792    0.0000 C   0  0  0  0  0  0  0  0  0  0  0  0
    8.1542   -2.6542    0.0000 C   0  0  0  0  0  0  0  0  0  0  0  0
    0.7667   -2.7125    0.0000 C   0  0  0  0  0  0  0  0  0  0  0  0
   -0.4708   -4.1292    0.0000 C   0  0  0  0  0  0  0  0  0  0  0  0
   -0.4708   -4.8542    0.0000 C   0  0  0  0  0  0  0  0  0  0  0  0
  2  1  1  0
  3  5  1  0
  4  3  2  0
  5  1  2  0
  6  2  2  0
  7  3  1  0
  8  7  2  0
  9  1  1  0
 10 11  1  0
 11 18  1  0
 12  4  1  0
 13  8  1  0
 14 10  1  0
 15  9  1  0
 16  9  1  0
 17 15  1  0
 18 16  1  0
 19 10  2  0
 20  6  1  0
 21 24  1  0
 22  7  1  0
 23  8  1  0
 24 14  1  0
 25 13  1  0
 26 21  1  0
 27 21  1  0
 28 21  1  0
 29 22  1  0
 30 23  1  0
 31 25  1  0
  6  4  1  0
 17 11  1  0
 13 12  2  0
M  END


> <chembl_id>
CHEMBL513301

> <chembl_pref_name>
TRIMAZOSIN
