REMARK  Name = 
REMARK  8 active torsions:
REMARK  status: ('A' for Active; 'I' for Inactive)
REMARK    1  A    between atoms: P_2  and  O_3
REMARK    2  A    between atoms: O_3  and  C_12
REMARK    3  A    between atoms: C_10  and  C_12
REMARK    4  A    between atoms: C_11  and  C_17
REMARK    5  A    between atoms: CB_23  and  CA_24
REMARK    6  A    between atoms: CB_23  and  CG_25
REMARK    7  A    between atoms: CA_24  and  C_26
REMARK    8  A    between atoms: CG_25  and  CD_27
REMARK                            x       y       z     vdW  Elec       q    Type
REMARK                         _______ _______ _______ _____ _____    ______ ____
ROOT
ATOM      1 MG   UNL     1       3.035  -2.387   0.000  0.00  0.00    +0.000 Mg
ENDROOT
TORSDOF 0
REMARK  Name = 
REMARK  8 active torsions:
REMARK  status: ('A' for Active; 'I' for Inactive)
REMARK    1  A    between atoms: P_2  and  O_3
REMARK    2  A    between atoms: O_3  and  C_12
REMARK    3  A    between atoms: C_10  and  C_12
REMARK    4  A    between atoms: C_11  and  C_17
REMARK    5  A    between atoms: CB_23  and  CA_24
REMARK    6  A    between atoms: CB_23  and  CG_25
REMARK    7  A    between atoms: CA_24  and  C_26
REMARK    8  A    between atoms: CG_25  and  CD_27
REMARK                            x       y       z     vdW  Elec       q    Type
REMARK                         _______ _______ _______ _____ _____    ______ ____
ROOT
ATOM      1  O   UNL     1      -1.340  -1.753   0.000  0.00  0.00    +0.000 OA
ATOM      2  N   UNL     1       0.804  -1.341   0.000  0.00  0.00    +0.000 NA
ATOM      3  C   UNL     1       0.089  -0.103   0.000  0.00  0.00    +0.000 A 
ATOM      4  C   UNL     1      -0.625  -0.516   0.000  0.00  0.00    +0.000 A 
ATOM      5  C   UNL     1      -0.625  -1.341   0.000  0.00  0.00    +0.000 A 
ATOM      6  C   UNL     1       0.089  -1.753   0.000  0.00  0.00    +0.000 A 
ATOM      7  C   UNL     1       0.804  -0.516   0.000  0.00  0.00    +0.000 A 
ATOM      8  C   UNL     1       0.089  -2.578   0.000  0.00  0.00    +0.000 C 
ENDROOT
BRANCH   4  10
ATOM      9  O   UNL     1      -2.054  -0.516   0.000  0.00  0.00    +0.000 OA
ATOM     10  C   UNL     1      -1.340  -0.103   0.000  0.00  0.00    +0.000 C 
ENDBRANCH   4  10
BRANCH   3  11
ATOM     11  C   UNL     1       0.089   0.722   0.000  0.00  0.00    +0.000 C 
BRANCH  11  12
ATOM     12  O   UNL     1       0.804   1.134   0.000  0.00  0.00    +0.000 OA
BRANCH  12  13
ATOM     13  P   UNL     1       0.804   1.959   0.000  0.00  0.00    +0.000 P 
ATOM     14  O   UNL     1       0.804   2.784   0.000  0.00  0.00    +0.000 OA
ATOM     15  O   UNL     1      -0.021   1.959   0.000  0.00  0.00    +0.000 OA
ATOM     16  O   UNL     1       1.629   1.959   0.000  0.00  0.00    +0.000 OA
ENDBRANCH  12  13
ENDBRANCH  11  12
ENDBRANCH   3  11
TORSDOF 4
REMARK  Name = 
REMARK  8 active torsions:
REMARK  status: ('A' for Active; 'I' for Inactive)
REMARK    1  A    between atoms: P_2  and  O_3
REMARK    2  A    between atoms: O_3  and  C_12
REMARK    3  A    between atoms: C_10  and  C_12
REMARK    4  A    between atoms: C_11  and  C_17
REMARK    5  A    between atoms: CB_23  and  CA_24
REMARK    6  A    between atoms: CB_23  and  CG_25
REMARK    7  A    between atoms: CA_24  and  C_26
REMARK    8  A    between atoms: CG_25  and  CD_27
REMARK                            x       y       z     vdW  Elec       q    Type
REMARK                         _______ _______ _______ _____ _____    ______ ____
ROOT
ATOM      1  CB  GLN A   1       5.894  -0.147   0.000  0.00  0.00    +0.000 C 
ENDROOT
BRANCH   1   3
ATOM      2  N   GLN A   1       5.179   1.090   0.000  0.00  0.00    +0.000 NA
ATOM      3  CA  GLN A   1       5.179   0.265   0.000  0.00  0.00    +0.000 C 
BRANCH   3   6
ATOM      4  O   GLN A   1       3.750   0.265   0.000  0.00  0.00    +0.000 OA
ATOM      5  OXT GLN A   1       4.465  -0.972   0.000  0.00  0.00    +0.000 OA
ATOM      6  C   GLN A   1       4.465  -0.147   0.000  0.00  0.00    +0.000 C 
ENDBRANCH   3   6
ENDBRANCH   1   3
BRANCH   1   7
ATOM      7  CG  GLN A   1       6.608   0.265   0.000  0.00  0.00    +0.000 C 
BRANCH   7  10
ATOM      8  OE1 GLN A   1       8.037   0.265   0.000  0.00  0.00    +0.000 OA
ATOM      9  NE2 GLN A   1       7.323  -0.972   0.000  0.00  0.00    +0.000 NA
ATOM     10  CD  GLN A   1       7.323  -0.147   0.000  0.00  0.00    +0.000 C 
ENDBRANCH   7  10
ENDBRANCH   1   7
TORSDOF 4
