REMARK  Name = 
REMARK  6 active torsions:
REMARK  status: ('A' for Active; 'I' for Inactive)
REMARK    1  A    between atoms: C_3  and  O_4
REMARK    2  A    between atoms: O_4  and  C_9
REMARK    3  A    between atoms: N_5  and  C_7
REMARK    4  A    between atoms: N_5  and  C_10
REMARK    5  A    between atoms: C_8  and  C_9
REMARK    6  A    between atoms: C_8  and  C_10
REMARK                            x       y       z     vdW  Elec       q    Type
REMARK                         _______ _______ _______ _____ _____    ______ ____
ROOT
ATOM      1  C   UNL     1       0.637  -1.779   0.000  0.00  0.00    +0.000 A 
ATOM      2  S   UNL     1       1.688  -1.137   0.000  0.00  0.00    +0.000 S 
ATOM      3  C   UNL     1      -0.408  -1.137   0.000  0.00  0.00    +0.000 A 
ATOM      4  C   UNL     1       0.637  -2.979   0.000  0.00  0.00    +0.000 A 
ATOM      5  C   UNL     1      -1.458  -2.979   0.000  0.00  0.00    +0.000 A 
ATOM      6  C   UNL     1       2.737  -1.779   0.000  0.00  0.00    +0.000 C 
ATOM      7  C   UNL     1      -1.458  -1.779   0.000  0.00  0.00    +0.000 A 
ATOM      8  C   UNL     1      -0.408  -3.587   0.000  0.00  0.00    +0.000 A 
ATOM      9  C   UNL     1       1.688  -3.587   0.000  0.00  0.00    +0.000 C 
ATOM     10  C   UNL     1       2.737  -2.979   0.000  0.00  0.00    +0.000 C 
ENDROOT
BRANCH   3  11
ATOM     11  O   UNL     1      -0.408   0.062   0.000  0.00  0.00    +0.000 OA
BRANCH  11  12
ATOM     12  C   UNL     1      -1.458   0.671   0.000  0.00  0.00    +0.000 C 
BRANCH  12  13
ATOM     13  C   UNL     1      -1.458   1.908   0.000  0.00  0.00    +0.000 C 
ATOM     14  O   UNL     1      -2.508   2.521   0.000  0.00  0.00    +0.000 OA
BRANCH  13  15
ATOM     15  C   UNL     1      -0.408   2.521   0.000  0.00  0.00    +0.000 C 
BRANCH  15  16
ATOM     16  N   UNL     1       0.637   1.908   0.000  0.00  0.00    +0.000 NA
BRANCH  16  17
ATOM     17  C   UNL     1       1.688   2.546   0.000  0.00  0.00    +0.000 C 
ATOM     18  C   UNL     1       1.050   3.596   0.000  0.00  0.00    +0.000 C 
ATOM     19  C   UNL     1       2.317   1.496   0.000  0.00  0.00    +0.000 C 
ATOM     20  C   UNL     1       2.737   3.183   0.000  0.00  0.00    +0.000 C 
ENDBRANCH  16  17
ENDBRANCH  15  16
ENDBRANCH  13  15
ENDBRANCH  12  13
ENDBRANCH  11  12
ENDBRANCH   3  11
TORSDOF 6
