
     RDKit          2D

 29 31  0  0  0  0  0  0  0  0999 V2000
    3.4378    3.8534    0.0000 S   0  0  0  0  0  0  0  0  0  0  0  0
    4.2628    0.9955    0.0000 O   0  0  0  0  0  0  0  0  0  0  0  0
    0.5503    0.2811    0.0000 O   0  0  0  0  0  0  0  0  0  0  0  0
    0.5503    1.7100    0.0000 O   0  0  0  0  0  0  0  0  0  0  0  0
    4.2628    2.4245    0.0000 N   0  0  0  0  0  0  0  0  0  0  0  0
    1.7878    0.9955    0.0000 N   0  0  0  0  0  0  0  0  0  0  0  0
    6.7378    0.9955    0.0000 N   0  0  0  0  0  0  0  0  0  0  0  0
    3.4378    2.4245    0.0000 C   0  0  0  0  0  0  0  0  0  0  0  0
    4.6753    3.1389    0.0000 C   0  0  0  0  0  0  0  0  0  0  0  0
    3.0253    3.1389    0.0000 C   0  0  0  0  0  0  0  0  0  0  0  0
    4.2628    3.8534    0.0000 C   0  0  0  0  0  0  0  0  0  0  0  0
    4.6753    1.7100    0.0000 C   0  0  0  0  0  0  0  0  0  0  0  0
    3.0253    1.7100    0.0000 C   0  0  0  0  0  0  0  0  0  0  0  0
    2.2003    1.7100    0.0000 C   0  0  0  0  0  0  0  0  0  0  0  0
    2.2003    3.1389    0.0000 C   0  0  0  0  0  0  0  0  0  0  0  0
    5.5003    3.1389    0.0000 C   0  0  0  0  0  0  0  0  0  0  0  0
    4.6753    4.5679    0.0000 C   0  0  0  0  0  0  0  0  0  0  0  0
    1.7878    2.4245    0.0000 C   0  0  0  0  0  0  0  0  0  0  0  0
    5.5003    1.7100    0.0000 C   0  0  0  0  0  0  0  0  0  0  0  0
    5.9128    3.8534    0.0000 C   0  0  0  0  0  0  0  0  0  0  0  0
    5.5003    4.5679    0.0000 C   0  0  0  0  0  0  0  0  0  0  0  0
    5.9128    0.9955    0.0000 C   0  0  0  0  0  0  0  0  0  0  0  0
    0.9628    0.9955    0.0000 C   0  0  0  0  0  0  0  0  0  0  0  0
    7.1503    0.2811    0.0000 C   0  0  0  0  0  0  0  0  0  0  0  0
    7.1503    1.7100    0.0000 C   0  0  0  0  0  0  0  0  0  0  0  0
   -0.2747    0.2811    0.0000 C   0  0  0  0  0  0  0  0  0  0  0  0
    7.9753    0.2811    0.0000 C   0  0  0  0  0  0  0  0  0  0  0  0
    7.9753    1.7100    0.0000 C   0  0  0  0  0  0  0  0  0  0  0  0
   -0.6872   -0.4334    0.0000 C   0  0  0  0  0  0  0  0  0  0  0  0
  1 10  1  0
  1 11  1  0
  2 12  2  0
  3 23  1  0
  3 26  1  0
  4 23  2  0
  5  8  1  0
  5  9  1  0
  5 12  1  0
  6 14  1  0
  6 23  1  0
  7 22  1  0
  7 24  1  0
  7 25  1  0
  8 10  2  0
  8 13  1  0
  9 11  2  0
  9 16  1  0
 10 15  1  0
 11 17  1  0
 12 19  1  0
 13 14  2  0
 14 18  1  0
 15 18  2  0
 16 20  2  0
 17 21  2  0
 19 22  1  0
 20 21  1  0
 24 27  1  0
 25 28  1  0
 26 29  1  0
M  END


> <chembl_id>
CHEMBL1997663

> <chembl_pref_name>
ETHACIZINE
