MODEL 1
REMARK VINA RESULT:      -7.1      0.000      0.000
REMARK  Name = 
REMARK  1 active torsions:
REMARK  status: ('A' for Active; 'I' for Inactive)
REMARK    1  A    between atoms: C_2  and  C_8
REMARK                            x       y       z     vdW  Elec       q    Type
REMARK                         _______ _______ _______ _____ _____    ______ ____
ROOT
ATOM      1  C   UNL     1     108.198 130.978 198.076  0.00  0.00    +0.000 A 
ATOM      2  C   UNL     1     106.716 129.307 197.269  0.00  0.00    +0.000 A 
ATOM      3  C   UNL     1     107.231 131.931 197.885  0.00  0.00    +0.000 A 
ATOM      4  C   UNL     1     107.940 129.663 197.767  0.00  0.00    +0.000 A 
ATOM      5  N   UNL     1     105.994 131.574 197.382  0.00  0.00    +0.000 NA
ATOM      6  C   UNL     1     105.721 130.187 197.057  0.00  0.00    +0.000 A 
ATOM      7  O   UNL     1     107.489 133.246 198.194  0.00  0.00    +0.000 OA
ATOM      8  N   UNL     1     109.441 131.363 198.585  0.00  0.00    +0.000 NA
ENDROOT
BRANCH   2   9
ATOM      9  C   UNL     1     106.452 127.963 196.954  0.00  0.00    +0.000 A 
ATOM     10  N   UNL     1     105.935 125.333 196.336  0.00  0.00    +0.000 NA
ATOM     11  C   UNL     1     105.203 126.339 195.732  0.00  0.00    +0.000 A 
ATOM     12  C   UNL     1     106.917 125.648 197.242  0.00  0.00    +0.000 A 
ATOM     13  C   UNL     1     105.461 127.654 196.040  0.00  0.00    +0.000 A 
ATOM     14  C   UNL     1     107.176 126.962 197.550  0.00  0.00    +0.000 A 
ENDBRANCH   2   9
TORSDOF 1
ENDMDL
MODEL 2
REMARK VINA RESULT:      -6.5      3.045      5.584
REMARK  Name = 
REMARK  1 active torsions:
REMARK  status: ('A' for Active; 'I' for Inactive)
REMARK    1  A    between atoms: C_2  and  C_8
REMARK                            x       y       z     vdW  Elec       q    Type
REMARK                         _______ _______ _______ _____ _____    ______ ____
ROOT
ATOM      1  C   UNL     1     106.879 132.004 196.481  0.00  0.00    +0.000 A 
ATOM      2  C   UNL     1     108.346 131.247 198.190  0.00  0.00    +0.000 A 
ATOM      3  C   UNL     1     106.497 130.711 196.234  0.00  0.00    +0.000 A 
ATOM      4  C   UNL     1     107.805 132.273 197.461  0.00  0.00    +0.000 A 
ATOM      5  N   UNL     1     107.041 129.673 196.968  0.00  0.00    +0.000 NA
ATOM      6  C   UNL     1     108.018 129.956 198.001  0.00  0.00    +0.000 A 
ATOM      7  O   UNL     1     105.571 130.442 195.254  0.00  0.00    +0.000 OA
ATOM      8  N   UNL     1     106.315 133.036 195.727  0.00  0.00    +0.000 NA
ENDROOT
BRANCH   2   9
ATOM      9  C   UNL     1     109.292 131.521 199.191  0.00  0.00    +0.000 A 
ATOM     10  N   UNL     1     111.145 132.059 201.151  0.00  0.00    +0.000 NA
ATOM     11  C   UNL     1     111.566 131.796 199.860  0.00  0.00    +0.000 A 
ATOM     12  C   UNL     1     109.807 132.052 201.453  0.00  0.00    +0.000 A 
ATOM     13  C   UNL     1     110.640 131.527 198.880  0.00  0.00    +0.000 A 
ATOM     14  C   UNL     1     108.880 131.783 200.473  0.00  0.00    +0.000 A 
ENDBRANCH   2   9
TORSDOF 1
ENDMDL
MODEL 3
REMARK VINA RESULT:      -5.8    117.007    117.465
REMARK  Name = 
REMARK  1 active torsions:
REMARK  status: ('A' for Active; 'I' for Inactive)
REMARK    1  A    between atoms: C_2  and  C_8
REMARK                            x       y       z     vdW  Elec       q    Type
REMARK                         _______ _______ _______ _____ _____    ______ ____
ROOT
ATOM      1  C   UNL     1     134.985 153.890  88.359  0.00  0.00    +0.000 A 
ATOM      2  C   UNL     1     134.425 154.221  86.074  0.00  0.00    +0.000 A 
ATOM      3  C   UNL     1     134.031 152.909  88.453  0.00  0.00    +0.000 A 
ATOM      4  C   UNL     1     135.183 154.547  87.167  0.00  0.00    +0.000 A 
ATOM      5  N   UNL     1     133.265 152.578  87.350  0.00  0.00    +0.000 NA
ATOM      6  C   UNL     1     133.473 153.271  86.094  0.00  0.00    +0.000 A 
ATOM      7  O   UNL     1     133.834 152.252  89.644  0.00  0.00    +0.000 OA
ATOM      8  N   UNL     1     135.748 154.207  89.486  0.00  0.00    +0.000 NA
ENDROOT
BRANCH   2   9
ATOM      9  C   UNL     1     134.627 154.893  84.857  0.00  0.00    +0.000 A 
ATOM     10  N   UNL     1     135.021 156.208  82.474  0.00  0.00    +0.000 NA
ATOM     11  C   UNL     1     136.085 156.011  83.335  0.00  0.00    +0.000 A 
ATOM     12  C   UNL     1     133.772 155.748  82.808  0.00  0.00    +0.000 A 
ATOM     13  C   UNL     1     135.888 155.353  84.527  0.00  0.00    +0.000 A 
ATOM     14  C   UNL     1     133.575 155.091  83.999  0.00  0.00    +0.000 A 
ENDBRANCH   2   9
TORSDOF 1
ENDMDL
MODEL 4
REMARK VINA RESULT:      -5.7     34.105     36.164
REMARK  Name = 
REMARK  1 active torsions:
REMARK  status: ('A' for Active; 'I' for Inactive)
REMARK    1  A    between atoms: C_2  and  C_8
REMARK                            x       y       z     vdW  Elec       q    Type
REMARK                         _______ _______ _______ _____ _____    ______ ____
ROOT
ATOM      1  C   UNL     1     126.983 155.907 186.753  0.00  0.00    +0.000 A 
ATOM      2  C   UNL     1     125.383 157.415 185.853  0.00  0.00    +0.000 A 
ATOM      3  C   UNL     1     126.296 154.851 186.211  0.00  0.00    +0.000 A 
ATOM      4  C   UNL     1     126.525 157.191 186.574  0.00  0.00    +0.000 A 
ATOM      5  N   UNL     1     125.142 155.073 185.483  0.00  0.00    +0.000 NA
ATOM      6  C   UNL     1     124.659 156.428 185.293  0.00  0.00    +0.000 A 
ATOM      7  O   UNL     1     126.754 153.567 186.391  0.00  0.00    +0.000 OA
ATOM      8  N   UNL     1     128.147 155.658 187.485  0.00  0.00    +0.000 NA
ENDROOT
BRANCH   2   9
ATOM      9  C   UNL     1     124.915 158.727 185.669  0.00  0.00    +0.000 A 
ATOM     10  N   UNL     1     124.000 161.295 185.310  0.00  0.00    +0.000 NA
ATOM     11  C   UNL     1     124.237 160.489 184.211  0.00  0.00    +0.000 A 
ATOM     12  C   UNL     1     124.221 160.814 186.576  0.00  0.00    +0.000 A 
ATOM     13  C   UNL     1     124.694 159.205 184.390  0.00  0.00    +0.000 A 
ATOM     14  C   UNL     1     124.679 159.530 186.755  0.00  0.00    +0.000 A 
ENDBRANCH   2   9
TORSDOF 1
ENDMDL
MODEL 5
REMARK VINA RESULT:      -5.6     72.892     73.665
REMARK  Name = 
REMARK  1 active torsions:
REMARK  status: ('A' for Active; 'I' for Inactive)
REMARK    1  A    between atoms: C_2  and  C_8
REMARK                            x       y       z     vdW  Elec       q    Type
REMARK                         _______ _______ _______ _____ _____    ______ ____
ROOT
ATOM      1  C   UNL     1     101.864 138.425 123.898  0.00  0.00    +0.000 A 
ATOM      2  C   UNL     1      99.820 137.345 124.447  0.00  0.00    +0.000 A 
ATOM      3  C   UNL     1     101.294 139.643 124.163  0.00  0.00    +0.000 A 
ATOM      4  C   UNL     1     101.126 137.273 124.040  0.00  0.00    +0.000 A 
ATOM      5  N   UNL     1      99.976 139.719 124.575  0.00  0.00    +0.000 NA
ATOM      6  C   UNL     1      99.198 138.505 124.724  0.00  0.00    +0.000 A 
ATOM      7  O   UNL     1     102.032 140.795 124.021  0.00  0.00    +0.000 OA
ATOM      8  N   UNL     1     103.198 138.373 123.483  0.00  0.00    +0.000 NA
ENDROOT
BRANCH   2   9
ATOM      9  C   UNL     1      99.066 136.169 124.592  0.00  0.00    +0.000 A 
ATOM     10  N   UNL     1      97.590 133.866 124.877  0.00  0.00    +0.000 NA
ATOM     11  C   UNL     1      97.210 135.014 125.549  0.00  0.00    +0.000 A 
ATOM     12  C   UNL     1      98.700 133.876 124.071  0.00  0.00    +0.000 A 
ATOM     13  C   UNL     1      97.948 136.165 125.406  0.00  0.00    +0.000 A 
ATOM     14  C   UNL     1      99.438 135.028 123.929  0.00  0.00    +0.000 A 
ENDBRANCH   2   9
TORSDOF 1
ENDMDL
MODEL 6
REMARK VINA RESULT:      -5.6    120.843    121.142
REMARK  Name = 
REMARK  1 active torsions:
REMARK  status: ('A' for Active; 'I' for Inactive)
REMARK    1  A    between atoms: C_2  and  C_8
REMARK                            x       y       z     vdW  Elec       q    Type
REMARK                         _______ _______ _______ _____ _____    ______ ____
ROOT
ATOM      1  C   UNL     1     160.495 143.101  90.648  0.00  0.00    +0.000 A 
ATOM      2  C   UNL     1     162.663 143.967  91.088  0.00  0.00    +0.000 A 
ATOM      3  C   UNL     1     160.658 142.176  91.648  0.00  0.00    +0.000 A 
ATOM      4  C   UNL     1     161.499 143.997  90.368  0.00  0.00    +0.000 A 
ATOM      5  N   UNL     1     161.833 142.143  92.377  0.00  0.00    +0.000 NA
ATOM      6  C   UNL     1     162.892 143.089  92.082  0.00  0.00    +0.000 A 
ATOM      7  O   UNL     1     159.655 141.280  91.928  0.00  0.00    +0.000 OA
ATOM      8  N   UNL     1     159.299 143.115  89.925  0.00  0.00    +0.000 NA
ENDROOT
BRANCH   2   9
ATOM      9  C   UNL     1     163.689 144.883  90.802  0.00  0.00    +0.000 A 
ATOM     10  N   UNL     1     165.696 146.676  90.241  0.00  0.00    +0.000 NA
ATOM     11  C   UNL     1     165.984 145.517  90.938  0.00  0.00    +0.000 A 
ATOM     12  C   UNL     1     164.412 146.931  89.830  0.00  0.00    +0.000 A 
ATOM     13  C   UNL     1     164.981 144.620  91.219  0.00  0.00    +0.000 A 
ATOM     14  C   UNL     1     163.408 146.034  90.111  0.00  0.00    +0.000 A 
ENDBRANCH   2   9
TORSDOF 1
ENDMDL
MODEL 7
REMARK VINA RESULT:      -5.6    121.035    121.333
REMARK  Name = 
REMARK  1 active torsions:
REMARK  status: ('A' for Active; 'I' for Inactive)
REMARK    1  A    between atoms: C_2  and  C_8
REMARK                            x       y       z     vdW  Elec       q    Type
REMARK                         _______ _______ _______ _____ _____    ______ ____
ROOT
ATOM      1  C   UNL     1     161.853 142.477  91.818  0.00  0.00    +0.000 A 
ATOM      2  C   UNL     1     162.672 144.441  90.762  0.00  0.00    +0.000 A 
ATOM      3  C   UNL     1     163.117 142.189  92.266  0.00  0.00    +0.000 A 
ATOM      4  C   UNL     1     161.630 143.605  91.065  0.00  0.00    +0.000 A 
ATOM      5  N   UNL     1     164.171 143.031  91.961  0.00  0.00    +0.000 NA
ATOM      6  C   UNL     1     163.935 144.220  91.166  0.00  0.00    +0.000 A 
ATOM      7  O   UNL     1     163.340 141.060  93.019  0.00  0.00    +0.000 OA
ATOM      8  N   UNL     1     160.804 141.611  92.139  0.00  0.00    +0.000 NA
ENDROOT
BRANCH   2   9
ATOM      9  C   UNL     1     162.444 145.594  89.992  0.00  0.00    +0.000 A 
ATOM     10  N   UNL     1     161.997 147.850  88.484  0.00  0.00    +0.000 NA
ATOM     11  C   UNL     1     163.250 147.619  89.023  0.00  0.00    +0.000 A 
ATOM     12  C   UNL     1     160.980 146.956  88.702  0.00  0.00    +0.000 A 
ATOM     13  C   UNL     1     163.474 146.491  89.777  0.00  0.00    +0.000 A 
ATOM     14  C   UNL     1     161.203 145.828  89.455  0.00  0.00    +0.000 A 
ENDBRANCH   2   9
TORSDOF 1
ENDMDL
MODEL 8
REMARK VINA RESULT:      -5.6    101.138    101.765
REMARK  Name = 
REMARK  1 active torsions:
REMARK  status: ('A' for Active; 'I' for Inactive)
REMARK    1  A    between atoms: C_2  and  C_8
REMARK                            x       y       z     vdW  Elec       q    Type
REMARK                         _______ _______ _______ _____ _____    ______ ____
ROOT
ATOM      1  C   UNL     1     116.273 148.558  98.778  0.00  0.00    +0.000 A 
ATOM      2  C   UNL     1     117.111 146.706  97.548  0.00  0.00    +0.000 A 
ATOM      3  C   UNL     1     115.073 148.453  98.122  0.00  0.00    +0.000 A 
ATOM      4  C   UNL     1     117.293 147.683  98.491  0.00  0.00    +0.000 A 
ATOM      5  N   UNL     1     114.886 147.468  97.170  0.00  0.00    +0.000 NA
ATOM      6  C   UNL     1     115.962 146.546  96.867  0.00  0.00    +0.000 A 
ATOM      7  O   UNL     1     114.052 149.328  98.410  0.00  0.00    +0.000 OA
ATOM      8  N   UNL     1     116.438 149.561  99.737  0.00  0.00    +0.000 NA
ENDROOT
BRANCH   2   9
ATOM      9  C   UNL     1     118.154 145.812  97.254  0.00  0.00    +0.000 A 
ATOM     10  N   UNL     1     120.196 144.062  96.679  0.00  0.00    +0.000 NA
ATOM     11  C   UNL     1     120.039 145.210  95.922  0.00  0.00    +0.000 A 
ATOM     12  C   UNL     1     119.335 143.798  97.714  0.00  0.00    +0.000 A 
ATOM     13  C   UNL     1     119.018 146.085  96.210  0.00  0.00    +0.000 A 
ATOM     14  C   UNL     1     118.314 144.673  98.001  0.00  0.00    +0.000 A 
ENDBRANCH   2   9
TORSDOF 1
ENDMDL
MODEL 9
REMARK VINA RESULT:      -5.6     84.988     86.554
REMARK  Name = 
REMARK  1 active torsions:
REMARK  status: ('A' for Active; 'I' for Inactive)
REMARK    1  A    between atoms: C_2  and  C_8
REMARK                            x       y       z     vdW  Elec       q    Type
REMARK                         _______ _______ _______ _____ _____    ______ ____
ROOT
ATOM      1  C   UNL     1     113.195 112.289 113.035  0.00  0.00    +0.000 A 
ATOM      2  C   UNL     1     115.467 112.982 113.020  0.00  0.00    +0.000 A 
ATOM      3  C   UNL     1     113.033 112.839 114.281  0.00  0.00    +0.000 A 
ATOM      4  C   UNL     1     114.414 112.360 112.404  0.00  0.00    +0.000 A 
ATOM      5  N   UNL     1     114.094 113.467 114.906  0.00  0.00    +0.000 NA
ATOM      6  C   UNL     1     115.380 113.543 114.240  0.00  0.00    +0.000 A 
ATOM      7  O   UNL     1     111.814 112.767 114.912  0.00  0.00    +0.000 OA
ATOM      8  N   UNL     1     112.108 111.659 112.423  0.00  0.00    +0.000 NA
ENDROOT
BRANCH   2   9
ATOM      9  C   UNL     1     116.713 113.055 112.375  0.00  0.00    +0.000 A 
ATOM     10  N   UNL     1     119.152 113.198 111.113  0.00  0.00    +0.000 NA
ATOM     11  C   UNL     1     119.063 113.456 112.469  0.00  0.00    +0.000 A 
ATOM     12  C   UNL     1     118.027 112.871 110.400  0.00  0.00    +0.000 A 
ATOM     13  C   UNL     1     117.844 113.385 113.100  0.00  0.00    +0.000 A 
ATOM     14  C   UNL     1     116.807 112.799 111.031  0.00  0.00    +0.000 A 
ENDBRANCH   2   9
TORSDOF 1
ENDMDL
MODEL 10
REMARK VINA RESULT:      -5.5     85.136     86.675
REMARK  Name = 
REMARK  1 active torsions:
REMARK  status: ('A' for Active; 'I' for Inactive)
REMARK    1  A    between atoms: C_2  and  C_8
REMARK                            x       y       z     vdW  Elec       q    Type
REMARK                         _______ _______ _______ _____ _____    ______ ____
ROOT
ATOM      1  C   UNL     1     117.046 112.934 110.829  0.00  0.00    +0.000 A 
ATOM      2  C   UNL     1     115.695 112.913 112.784  0.00  0.00    +0.000 A 
ATOM      3  C   UNL     1     118.146 113.239 111.590  0.00  0.00    +0.000 A 
ATOM      4  C   UNL     1     115.819 112.771 111.427  0.00  0.00    +0.000 A 
ATOM      5  N   UNL     1     118.024 113.384 112.960  0.00  0.00    +0.000 NA
ATOM      6  C   UNL     1     116.730 113.212 113.591  0.00  0.00    +0.000 A 
ATOM      7  O   UNL     1     119.373 113.403 110.992  0.00  0.00    +0.000 OA
ATOM      8  N   UNL     1     117.194 112.793 109.447  0.00  0.00    +0.000 NA
ENDROOT
BRANCH   2   9
ATOM      9  C   UNL     1     114.441 112.747 113.395  0.00  0.00    +0.000 A 
ATOM     10  N   UNL     1     111.986 112.420 114.591  0.00  0.00    +0.000 NA
ATOM     11  C   UNL     1     112.212 111.899 113.329  0.00  0.00    +0.000 A 
ATOM     12  C   UNL     1     112.985 113.099 115.243  0.00  0.00    +0.000 A 
ATOM     13  C   UNL     1     113.440 112.062 112.732  0.00  0.00    +0.000 A 
ATOM     14  C   UNL     1     114.212 113.262 114.645  0.00  0.00    +0.000 A 
ENDBRANCH   2   9
TORSDOF 1
ENDMDL
MODEL 11
REMARK VINA RESULT:      -5.3     65.207     66.408
REMARK  Name = 
REMARK  1 active torsions:
REMARK  status: ('A' for Active; 'I' for Inactive)
REMARK    1  A    between atoms: C_2  and  C_8
REMARK                            x       y       z     vdW  Elec       q    Type
REMARK                         _______ _______ _______ _____ _____    ______ ____
ROOT
ATOM      1  C   UNL     1     111.466 126.888 132.452  0.00  0.00    +0.000 A 
ATOM      2  C   UNL     1     113.183 125.646 131.378  0.00  0.00    +0.000 A 
ATOM      3  C   UNL     1     110.579 125.869 132.218  0.00  0.00    +0.000 A 
ATOM      4  C   UNL     1     112.770 126.777 132.031  0.00  0.00    +0.000 A 
ATOM      5  N   UNL     1     110.993 124.726 131.559  0.00  0.00    +0.000 NA
ATOM      6  C   UNL     1     112.368 124.608 131.115  0.00  0.00    +0.000 A 
ATOM      7  O   UNL     1     109.275 125.980 132.639  0.00  0.00    +0.000 OA
ATOM      8  N   UNL     1     111.025 128.034 133.120  0.00  0.00    +0.000 NA
ENDROOT
BRANCH   2   9
ATOM      9  C   UNL     1     114.515 125.532 130.947  0.00  0.00    +0.000 A 
ATOM     10  N   UNL     1     117.124 125.309 130.105  0.00  0.00    +0.000 NA
ATOM     11  C   UNL     1     116.624 126.544 130.476  0.00  0.00    +0.000 A 
ATOM     12  C   UNL     1     116.320 124.198 130.157  0.00  0.00    +0.000 A 
ATOM     13  C   UNL     1     115.320 126.656 130.897  0.00  0.00    +0.000 A 
ATOM     14  C   UNL     1     115.016 124.310 130.578  0.00  0.00    +0.000 A 
ENDBRANCH   2   9
TORSDOF 1
ENDMDL
MODEL 12
REMARK VINA RESULT:      -5.3     84.500     86.032
REMARK  Name = 
REMARK  1 active torsions:
REMARK  status: ('A' for Active; 'I' for Inactive)
REMARK    1  A    between atoms: C_2  and  C_8
REMARK                            x       y       z     vdW  Elec       q    Type
REMARK                         _______ _______ _______ _____ _____    ______ ____
ROOT
ATOM      1  C   UNL     1     114.667 113.469 115.465  0.00  0.00    +0.000 A 
ATOM      2  C   UNL     1     115.484 113.109 113.264  0.00  0.00    +0.000 A 
ATOM      3  C   UNL     1     113.399 113.152 115.049  0.00  0.00    +0.000 A 
ATOM      4  C   UNL     1     115.711 113.447 114.571  0.00  0.00    +0.000 A 
ATOM      5  N   UNL     1     113.167 112.810 113.729  0.00  0.00    +0.000 NA
ATOM      6  C   UNL     1     114.268 112.788 112.786  0.00  0.00    +0.000 A 
ATOM      7  O   UNL     1     112.355 113.174 115.943  0.00  0.00    +0.000 OA
ATOM      8  N   UNL     1     114.877 113.811 116.804  0.00  0.00    +0.000 NA
ENDROOT
BRANCH   2   9
ATOM      9  C   UNL     1     116.551 113.087 112.350  0.00  0.00    +0.000 A 
ATOM     10  N   UNL     1     118.640 113.043 110.562  0.00  0.00    +0.000 NA
ATOM     11  C   UNL     1     118.895 113.181 111.914  0.00  0.00    +0.000 A 
ATOM     12  C   UNL     1     117.348 112.929 110.114  0.00  0.00    +0.000 A 
ATOM     13  C   UNL     1     117.850 113.203 112.808  0.00  0.00    +0.000 A 
ATOM     14  C   UNL     1     116.304 112.950 111.008  0.00  0.00    +0.000 A 
ENDBRANCH   2   9
TORSDOF 1
ENDMDL
MODEL 13
REMARK VINA RESULT:      -5.1     86.261     87.546
REMARK  Name = 
REMARK  1 active torsions:
REMARK  status: ('A' for Active; 'I' for Inactive)
REMARK    1  A    between atoms: C_2  and  C_8
REMARK                            x       y       z     vdW  Elec       q    Type
REMARK                         _______ _______ _______ _____ _____    ______ ____
ROOT
ATOM      1  C   UNL     1     117.485 113.399 112.719  0.00  0.00    +0.000 A 
ATOM      2  C   UNL     1     119.719 112.785 112.193  0.00  0.00    +0.000 A 
ATOM      3  C   UNL     1     117.056 112.859 111.533  0.00  0.00    +0.000 A 
ATOM      4  C   UNL     1     118.819 113.361 113.049  0.00  0.00    +0.000 A 
ATOM      5  N   UNL     1     117.962 112.276 110.667  0.00  0.00    +0.000 NA
ATOM      6  C   UNL     1     119.369 112.237 111.016  0.00  0.00    +0.000 A 
ATOM      7  O   UNL     1     115.722 112.896 111.203  0.00  0.00    +0.000 OA
ATOM      8  N   UNL     1     116.550 113.982 113.578  0.00  0.00    +0.000 NA
ENDROOT
BRANCH   2   9
ATOM      9  C   UNL     1     121.082 112.747 112.531  0.00  0.00    +0.000 A 
ATOM     10  N   UNL     1     123.751 112.673 113.192  0.00  0.00    +0.000 NA
ATOM     11  C   UNL     1     122.819 113.072 114.134  0.00  0.00    +0.000 A 
ATOM     12  C   UNL     1     123.344 112.314 111.932  0.00  0.00    +0.000 A 
ATOM     13  C   UNL     1     121.485 113.109 113.803  0.00  0.00    +0.000 A 
ATOM     14  C   UNL     1     122.010 112.351 111.601  0.00  0.00    +0.000 A 
ENDBRANCH   2   9
TORSDOF 1
ENDMDL
MODEL 14
REMARK VINA RESULT:      -5.1     89.073     90.512
REMARK  Name = 
REMARK  1 active torsions:
REMARK  status: ('A' for Active; 'I' for Inactive)
REMARK    1  A    between atoms: C_2  and  C_8
REMARK                            x       y       z     vdW  Elec       q    Type
REMARK                         _______ _______ _______ _____ _____    ______ ____
ROOT
ATOM      1  C   UNL     1     122.137 111.666 111.319  0.00  0.00    +0.000 A 
ATOM      2  C   UNL     1     124.067 110.450 110.657  0.00  0.00    +0.000 A 
ATOM      3  C   UNL     1     122.761 112.027 112.486  0.00  0.00    +0.000 A 
ATOM      4  C   UNL     1     122.791 110.877 110.403  0.00  0.00    +0.000 A 
ATOM      5  N   UNL     1     124.050 111.598 112.745  0.00  0.00    +0.000 NA
ATOM      6  C   UNL     1     124.740 110.765 111.779  0.00  0.00    +0.000 A 
ATOM      7  O   UNL     1     122.107 112.817 113.401  0.00  0.00    +0.000 OA
ATOM      8  N   UNL     1     120.834 112.112 111.079  0.00  0.00    +0.000 NA
ENDROOT
BRANCH   2   9
ATOM      9  C   UNL     1     124.736 109.643 109.721  0.00  0.00    +0.000 A 
ATOM     10  N   UNL     1     126.044 108.064 107.890  0.00  0.00    +0.000 NA
ATOM     11  C   UNL     1     126.750 108.640 108.930  0.00  0.00    +0.000 A 
ATOM     12  C   UNL     1     124.694 108.280 107.772  0.00  0.00    +0.000 A 
ATOM     13  C   UNL     1     126.096 109.429 109.846  0.00  0.00    +0.000 A 
ATOM     14  C   UNL     1     124.040 109.070 108.688  0.00  0.00    +0.000 A 
ENDBRANCH   2   9
TORSDOF 1
ENDMDL
MODEL 15
REMARK VINA RESULT:      -5.1     65.017     66.185
REMARK  Name = 
REMARK  1 active torsions:
REMARK  status: ('A' for Active; 'I' for Inactive)
REMARK    1  A    between atoms: C_2  and  C_8
REMARK                            x       y       z     vdW  Elec       q    Type
REMARK                         _______ _______ _______ _____ _____    ______ ____
ROOT
ATOM      1  C   UNL     1     115.697 127.058 130.865  0.00  0.00    +0.000 A 
ATOM      2  C   UNL     1     113.516 126.399 131.538  0.00  0.00    +0.000 A 
ATOM      3  C   UNL     1     115.956 125.778 130.444  0.00  0.00    +0.000 A 
ATOM      4  C   UNL     1     114.475 127.368 131.413  0.00  0.00    +0.000 A 
ATOM      5  N   UNL     1     114.990 124.797 130.569  0.00  0.00    +0.000 NA
ATOM      6  C   UNL     1     113.701 125.125 131.147  0.00  0.00    +0.000 A 
ATOM      7  O   UNL     1     117.178 125.468 129.895  0.00  0.00    +0.000 OA
ATOM      8  N   UNL     1     116.689 128.032 130.728  0.00  0.00    +0.000 NA
ENDROOT
BRANCH   2   9
ATOM      9  C   UNL     1     112.268 126.716 132.099  0.00  0.00    +0.000 A 
ATOM     10  N   UNL     1     109.823 127.337 133.195  0.00  0.00    +0.000 NA
ATOM     11  C   UNL     1     109.973 126.173 132.463  0.00  0.00    +0.000 A 
ATOM     12  C   UNL     1     110.892 128.180 133.374  0.00  0.00    +0.000 A 
ATOM     13  C   UNL     1     111.195 125.862 131.915  0.00  0.00    +0.000 A 
ATOM     14  C   UNL     1     112.114 127.869 132.825  0.00  0.00    +0.000 A 
ENDBRANCH   2   9
TORSDOF 1
ENDMDL
MODEL 16
REMARK VINA RESULT:      -5.0     80.078     80.683
REMARK  Name = 
REMARK  1 active torsions:
REMARK  status: ('A' for Active; 'I' for Inactive)
REMARK    1  A    between atoms: C_2  and  C_8
REMARK                            x       y       z     vdW  Elec       q    Type
REMARK                         _______ _______ _______ _____ _____    ______ ____
ROOT
ATOM      1  C   UNL     1     120.495 140.521 117.723  0.00  0.00    +0.000 A 
ATOM      2  C   UNL     1     121.308 142.367 118.979  0.00  0.00    +0.000 A 
ATOM      3  C   UNL     1     120.899 141.130 116.563  0.00  0.00    +0.000 A 
ATOM      4  C   UNL     1     120.699 141.141 118.933  0.00  0.00    +0.000 A 
ATOM      5  N   UNL     1     121.513 142.368 116.605  0.00  0.00    +0.000 NA
ATOM      6  C   UNL     1     121.729 143.021 117.882  0.00  0.00    +0.000 A 
ATOM      7  O   UNL     1     120.694 140.510 115.352  0.00  0.00    +0.000 OA
ATOM      8  N   UNL     1     119.876 139.270 117.655  0.00  0.00    +0.000 NA
ENDROOT
BRANCH   2   9
ATOM      9  C   UNL     1     121.517 143.000 120.215  0.00  0.00    +0.000 A 
ATOM     10  N   UNL     1     121.926 144.240 122.636  0.00  0.00    +0.000 NA
ATOM     11  C   UNL     1     121.120 143.118 122.565  0.00  0.00    +0.000 A 
ATOM     12  C   UNL     1     122.520 144.733 121.501  0.00  0.00    +0.000 A 
ATOM     13  C   UNL     1     120.915 142.498 121.355  0.00  0.00    +0.000 A 
ATOM     14  C   UNL     1     122.315 144.113 120.291  0.00  0.00    +0.000 A 
ENDBRANCH   2   9
TORSDOF 1
ENDMDL
MODEL 17
REMARK VINA RESULT:      -5.0     41.801     43.023
REMARK  Name = 
REMARK  1 active torsions:
REMARK  status: ('A' for Active; 'I' for Inactive)
REMARK    1  A    between atoms: C_2  and  C_8
REMARK                            x       y       z     vdW  Elec       q    Type
REMARK                         _______ _______ _______ _____ _____    ______ ____
ROOT
ATOM      1  C   UNL     1     146.093 134.154 177.197  0.00  0.00    +0.000 A 
ATOM      2  C   UNL     1     145.633 132.865 179.138  0.00  0.00    +0.000 A 
ATOM      3  C   UNL     1     146.957 133.185 176.755  0.00  0.00    +0.000 A 
ATOM      4  C   UNL     1     145.429 133.994 178.390  0.00  0.00    +0.000 A 
ATOM      5  N   UNL     1     147.164 132.044 177.509  0.00  0.00    +0.000 NA
ATOM      6  C   UNL     1     146.465 131.875 178.767  0.00  0.00    +0.000 A 
ATOM      7  O   UNL     1     147.621 133.345 175.562  0.00  0.00    +0.000 OA
ATOM      8  N   UNL     1     145.900 135.298 176.418  0.00  0.00    +0.000 NA
ENDROOT
BRANCH   2   9
ATOM      9  C   UNL     1     144.955 132.701 180.358  0.00  0.00    +0.000 A 
ATOM     10  N   UNL     1     143.627 132.380 182.745  0.00  0.00    +0.000 NA
ATOM     11  C   UNL     1     143.476 131.440 181.742  0.00  0.00    +0.000 A 
ATOM     12  C   UNL     1     144.438 133.470 182.549  0.00  0.00    +0.000 A 
ATOM     13  C   UNL     1     144.140 131.600 180.548  0.00  0.00    +0.000 A 
ATOM     14  C   UNL     1     145.101 133.630 181.356  0.00  0.00    +0.000 A 
ENDBRANCH   2   9
TORSDOF 1
ENDMDL
MODEL 18
REMARK VINA RESULT:      -4.9     84.571     85.907
REMARK  Name = 
REMARK  1 active torsions:
REMARK  status: ('A' for Active; 'I' for Inactive)
REMARK    1  A    between atoms: C_2  and  C_8
REMARK                            x       y       z     vdW  Elec       q    Type
REMARK                         _______ _______ _______ _____ _____    ______ ____
ROOT
ATOM      1  C   UNL     1     117.961 113.145 112.709  0.00  0.00    +0.000 A 
ATOM      2  C   UNL     1     115.820 112.774 113.670  0.00  0.00    +0.000 A 
ATOM      3  C   UNL     1     118.421 113.620 113.911  0.00  0.00    +0.000 A 
ATOM      4  C   UNL     1     116.659 112.720 112.589  0.00  0.00    +0.000 A 
ATOM      5  N   UNL     1     117.576 113.675 115.004  0.00  0.00    +0.000 NA
ATOM      6  C   UNL     1     116.203 113.228 114.877  0.00  0.00    +0.000 A 
ATOM      7  O   UNL     1     119.723 114.044 114.031  0.00  0.00    +0.000 OA
ATOM      8  N   UNL     1     118.833 113.098 111.618  0.00  0.00    +0.000 NA
ENDROOT
BRANCH   2   9
ATOM      9  C   UNL     1     114.490 112.341 113.547  0.00  0.00    +0.000 A 
ATOM     10  N   UNL     1     111.885 111.492 113.307  0.00  0.00    +0.000 NA
ATOM     11  C   UNL     1     112.522 111.418 114.532  0.00  0.00    +0.000 A 
ATOM     12  C   UNL     1     112.551 111.988 112.214  0.00  0.00    +0.000 A 
ATOM     13  C   UNL     1     113.825 111.842 114.652  0.00  0.00    +0.000 A 
ATOM     14  C   UNL     1     113.853 112.412 112.335  0.00  0.00    +0.000 A 
ENDBRANCH   2   9
TORSDOF 1
ENDMDL
MODEL 19
REMARK VINA RESULT:      -4.9     80.457     81.206
REMARK  Name = 
REMARK  1 active torsions:
REMARK  status: ('A' for Active; 'I' for Inactive)
REMARK    1  A    between atoms: C_2  and  C_8
REMARK                            x       y       z     vdW  Elec       q    Type
REMARK                         _______ _______ _______ _____ _____    ______ ____
ROOT
ATOM      1  C   UNL     1     143.707 119.634 123.595  0.00  0.00    +0.000 A 
ATOM      2  C   UNL     1     144.322 120.003 125.860  0.00  0.00    +0.000 A 
ATOM      3  C   UNL     1     144.230 120.855 123.252  0.00  0.00    +0.000 A 
ATOM      4  C   UNL     1     143.753 119.208 124.901  0.00  0.00    +0.000 A 
ATOM      5  N   UNL     1     144.805 121.660 124.218  0.00  0.00    +0.000 NA
ATOM      6  C   UNL     1     144.854 121.210 125.595  0.00  0.00    +0.000 A 
ATOM      7  O   UNL     1     144.184 121.282 121.946  0.00  0.00    +0.000 OA
ATOM      8  N   UNL     1     143.130 118.838 122.601  0.00  0.00    +0.000 NA
ENDROOT
BRANCH   2   9
ATOM      9  C   UNL     1     144.369 119.567 127.194  0.00  0.00    +0.000 A 
ATOM     10  N   UNL     1     144.461 118.713 129.807  0.00  0.00    +0.000 NA
ATOM     11  C   UNL     1     143.535 119.668 129.427  0.00  0.00    +0.000 A 
ATOM     12  C   UNL     1     145.331 118.193 128.882  0.00  0.00    +0.000 A 
ATOM     13  C   UNL     1     143.489 120.095 128.121  0.00  0.00    +0.000 A 
ATOM     14  C   UNL     1     145.285 118.620 127.576  0.00  0.00    +0.000 A 
ENDBRANCH   2   9
TORSDOF 1
ENDMDL
MODEL 20
REMARK VINA RESULT:      -4.8     43.466     44.752
REMARK  Name = 
REMARK  1 active torsions:
REMARK  status: ('A' for Active; 'I' for Inactive)
REMARK    1  A    between atoms: C_2  and  C_8
REMARK                            x       y       z     vdW  Elec       q    Type
REMARK                         _______ _______ _______ _____ _____    ______ ____
ROOT
ATOM      1  C   UNL     1     145.802 131.060 178.272  0.00  0.00    +0.000 A 
ATOM      2  C   UNL     1     146.277 133.237 177.450  0.00  0.00    +0.000 A 
ATOM      3  C   UNL     1     144.517 131.160 177.802  0.00  0.00    +0.000 A 
ATOM      4  C   UNL     1     146.683 132.100 178.095  0.00  0.00    +0.000 A 
ATOM      5  N   UNL     1     144.104 132.307 177.150  0.00  0.00    +0.000 NA
ATOM      6  C   UNL     1     145.033 133.405 176.964  0.00  0.00    +0.000 A 
ATOM      7  O   UNL     1     143.636 130.120 177.979  0.00  0.00    +0.000 OA
ATOM      8  N   UNL     1     146.196 129.891 178.928  0.00  0.00    +0.000 NA
ENDROOT
BRANCH   2   9
ATOM      9  C   UNL     1     147.177 134.301 177.269  0.00  0.00    +0.000 A 
ATOM     10  N   UNL     1     148.940 136.381 176.915  0.00  0.00    +0.000 NA
ATOM     11  C   UNL     1     147.616 136.531 176.544  0.00  0.00    +0.000 A 
ATOM     12  C   UNL     1     149.372 135.198 177.459  0.00  0.00    +0.000 A 
ATOM     13  C   UNL     1     146.735 135.490 176.721  0.00  0.00    +0.000 A 
ATOM     14  C   UNL     1     148.491 134.158 177.636  0.00  0.00    +0.000 A 
ENDBRANCH   2   9
TORSDOF 1
ENDMDL
