REMARK  Name = 
REMARK  18 active torsions:
REMARK  status: ('A' for Active; 'I' for Inactive)
REMARK    1  A    between atoms: C_1  and  C_6
REMARK    2  A    between atoms: C_2  and  C_20
REMARK    3  A    between atoms: S_4  and  N_8
REMARK    4  A    between atoms: C_6  and  C_10
REMARK    5  A    between atoms: N_8  and  C_13
REMARK    6  A    between atoms: C_20  and  C_31
REMARK    7  A    between atoms: N_21  and  C_27
REMARK    8  A    between atoms: N_21  and  C_29
REMARK    9  A    between atoms: N_21  and  C_30
REMARK   10  A    between atoms: C_22  and  O_26
REMARK   11  A    between atoms: C_25  and  C_27
REMARK   12  A    between atoms: C_25  and  C_28
REMARK   13  A    between atoms: O_26  and  C_28
REMARK   14  A    between atoms: C_29  and  C_32
REMARK   15  A    between atoms: C_30  and  C_33
REMARK   16  A    between atoms: C_31  and  C_34
REMARK   17  A    between atoms: C_32  and  C_35
REMARK   18  A    between atoms: C_33  and  C_36
REMARK                            x       y       z     vdW  Elec       q    Type
REMARK                         _______ _______ _______ _____ _____    ______ ____
ROOT
ATOM      1  C   UNL     1      -1.300  -0.542   0.000  0.00  0.00    +0.000 C 
ATOM      2  O   UNL     1      -1.683  -0.925   0.000  0.00  0.00    +0.000 OA
ENDROOT
BRANCH   1   3
ATOM      3  C   UNL     1      -1.438  -0.029   0.000  0.00  0.00    +0.000 A 
ATOM      4  C   UNL     1      -1.121   0.408   0.000  0.00  0.00    +0.000 A 
ATOM      5  C   UNL     1      -1.950   0.138   0.000  0.00  0.00    +0.000 A 
ATOM      6  O   UNL     1      -1.438   0.846   0.000  0.00  0.00    +0.000 OA
ATOM      7  C   UNL     1      -1.958   0.683   0.000  0.00  0.00    +0.000 A 
ATOM      8  C   UNL     1      -2.421  -0.129   0.000  0.00  0.00    +0.000 A 
ATOM      9  C   UNL     1      -2.883   0.138   0.000  0.00  0.00    +0.000 A 
ATOM     10  C   UNL     1      -2.421   0.946   0.000  0.00  0.00    +0.000 A 
ATOM     11  C   UNL     1      -2.883   0.675   0.000  0.00  0.00    +0.000 A 
BRANCH   4  12
ATOM     12  C   UNL     1      -0.583   0.412   0.000  0.00  0.00    +0.000 C 
BRANCH  12  13
ATOM     13  C   UNL     1      -0.321   0.883   0.000  0.00  0.00    +0.000 C 
BRANCH  13  14
ATOM     14  C   UNL     1       0.217   0.883   0.000  0.00  0.00    +0.000 C 
ATOM     15  C   UNL     1       0.479   1.346   0.000  0.00  0.00    +0.000 C 
ENDBRANCH  13  14
ENDBRANCH  12  13
ENDBRANCH   4  12
BRANCH   9  16
ATOM     16  N   UNL     1      -3.346  -0.125   0.000  0.00  0.00    +0.000 NA
BRANCH  16  17
ATOM     17  S   UNL     1      -3.821   0.146   0.000  0.00  0.00    +0.000 S 
ATOM     18  O   UNL     1      -4.283   0.408   0.000  0.00  0.00    +0.000 OA
ATOM     19  O   UNL     1      -4.083  -0.317   0.000  0.00  0.00    +0.000 OA
ATOM     20  C   UNL     1      -3.546   0.608   0.000  0.00  0.00    +0.000 C 
ENDBRANCH  16  17
ENDBRANCH   9  16
ENDBRANCH   1   3
BRANCH   1  21
ATOM     21  C   UNL     1      -0.783  -0.679   0.000  0.00  0.00    +0.000 A 
ATOM     22  C   UNL     1      -0.646  -1.204   0.000  0.00  0.00    +0.000 A 
ATOM     23  C   UNL     1      -0.408  -0.304   0.000  0.00  0.00    +0.000 A 
ATOM     24  C   UNL     1       0.250  -0.963   0.000  0.00  0.00    +0.000 A 
ATOM     25  C   UNL     1      -0.133  -1.342   0.000  0.00  0.00    +0.000 A 
ATOM     26  C   UNL     1       0.104  -0.442   0.000  0.00  0.00    +0.000 A 
BRANCH  24  27
ATOM     27  O   UNL     1       0.767  -1.100   0.000  0.00  0.00    +0.000 OA
BRANCH  27  28
ATOM     28  C   UNL     1       1.279  -1.238   0.000  0.00  0.00    +0.000 C 
BRANCH  28  29
ATOM     29  C   UNL     1       1.654  -0.854   0.000  0.00  0.00    +0.000 C 
BRANCH  29  30
ATOM     30  C   UNL     1       2.179  -1.000   0.000  0.00  0.00    +0.000 C 
BRANCH  30  31
ATOM     31  N   UNL     1       2.554  -0.617   0.000  0.00  0.00    +0.000 NA
BRANCH  31  32
ATOM     32  C   UNL     1       3.067  -0.754   0.000  0.00  0.00    +0.000 C 
BRANCH  32  33
ATOM     33  C   UNL     1       3.450  -0.379   0.000  0.00  0.00    +0.000 C 
BRANCH  33  34
ATOM     34  C   UNL     1       3.967  -0.517   0.000  0.00  0.00    +0.000 C 
ATOM     35  C   UNL     1       4.342  -0.138   0.000  0.00  0.00    +0.000 C 
ENDBRANCH  33  34
ENDBRANCH  32  33
ENDBRANCH  31  32
BRANCH  31  36
ATOM     36  C   UNL     1       2.417  -0.092   0.000  0.00  0.00    +0.000 C 
BRANCH  36  37
ATOM     37  C   UNL     1       2.792   0.283   0.000  0.00  0.00    +0.000 C 
BRANCH  37  38
ATOM     38  C   UNL     1       2.654   0.800   0.000  0.00  0.00    +0.000 C 
ATOM     39  C   UNL     1       3.029   1.183   0.000  0.00  0.00    +0.000 C 
ENDBRANCH  37  38
ENDBRANCH  36  37
ENDBRANCH  31  36
ENDBRANCH  30  31
ENDBRANCH  29  30
ENDBRANCH  28  29
ENDBRANCH  27  28
ENDBRANCH  24  27
ENDBRANCH   1  21
TORSDOF 18
