MODEL 1
REMARK VINA RESULT:      -6.4      0.000      0.000
REMARK  Name = 
REMARK  2 active torsions:
REMARK  status: ('A' for Active; 'I' for Inactive)
REMARK    1  A    between atoms: N_1  and  O_7
REMARK    2  A    between atoms: C_4  and  O_7
REMARK                            x       y       z     vdW  Elec       q    Type
REMARK                         _______ _______ _______ _____ _____    ______ ____
ROOT
ATOM      1  C   UNL     1     127.934 117.031 178.156  0.00  0.00    +0.000 C 
ATOM      2  C   UNL     1     127.910 116.722 178.812  0.00  0.00    +0.000 C 
ATOM      3  C   UNL     1     128.594 117.257 178.066  0.00  0.00    +0.000 C 
ATOM      4  O   UNL     1     128.555 116.763 179.113  0.00  0.00    +0.000 OA
ATOM      5  O   UNL     1     127.288 116.980 177.874  0.00  0.00    +0.000 OA
ATOM      6  C   UNL     1     127.253 116.493 178.910  0.00  0.00    +0.000 C 
ATOM      7  C   UNL     1     128.992 117.109 178.629  0.00  0.00    +0.000 C 
ATOM      8  C   UNL     1     126.860 116.642 178.348  0.00  0.00    +0.000 C 
ATOM      9  O   UNL     1     127.024 116.161 179.491  0.00  0.00    +0.000 OA
ENDROOT
BRANCH   3  10
ATOM     10  O   UNL     1     128.643 117.562 177.433  0.00  0.00    +0.000 OA
BRANCH  10  11
ATOM     11  N   UNL     1     129.266 117.804 177.211  0.00  0.00    +0.000 N 
ATOM     12  O   UNL     1     129.442 118.484 177.334  0.00  0.00    +0.000 OA
ATOM     13  O   UNL     1     129.693 117.363 176.874  0.00  0.00    +0.000 OA
ENDBRANCH  10  11
ENDBRANCH   3  10
TORSDOF 2
ENDMDL
MODEL 2
REMARK VINA RESULT:      -6.3     64.102     64.601
REMARK  Name = 
REMARK  2 active torsions:
REMARK  status: ('A' for Active; 'I' for Inactive)
REMARK    1  A    between atoms: N_1  and  O_7
REMARK    2  A    between atoms: C_4  and  O_7
REMARK                            x       y       z     vdW  Elec       q    Type
REMARK                         _______ _______ _______ _____ _____    ______ ____
ROOT
ATOM      1  C   UNL     1     102.388 139.976 123.538  0.00  0.00    +0.000 C 
ATOM      2  C   UNL     1     102.862 140.344 123.131  0.00  0.00    +0.000 C 
ATOM      3  C   UNL     1     102.530 139.294 123.443  0.00  0.00    +0.000 C 
ATOM      4  O   UNL     1     103.287 139.881 122.793  0.00  0.00    +0.000 OA
ATOM      5  O   UNL     1     101.976 140.450 123.864  0.00  0.00    +0.000 OA
ATOM      6  C   UNL     1     102.726 141.027 123.220  0.00  0.00    +0.000 C 
ATOM      7  C   UNL     1     103.069 139.206 122.998  0.00  0.00    +0.000 C 
ATOM      8  C   UNL     1     102.189 141.110 123.664  0.00  0.00    +0.000 C 
ATOM      9  O   UNL     1     103.081 141.553 122.906  0.00  0.00    +0.000 OA
ENDROOT
BRANCH   3  10
ATOM     10  O   UNL     1     102.081 138.914 123.831  0.00  0.00    +0.000 OA
BRANCH  10  11
ATOM     11  N   UNL     1     102.112 138.211 123.810  0.00  0.00    +0.000 N 
ATOM     12  O   UNL     1     102.559 137.867 124.247  0.00  0.00    +0.000 OA
ATOM     13  O   UNL     1     101.699 137.872 123.358  0.00  0.00    +0.000 OA
ENDBRANCH  10  11
ENDBRANCH   3  10
TORSDOF 2
ENDMDL
MODEL 3
REMARK VINA RESULT:      -6.2     32.279     32.941
REMARK  Name = 
REMARK  2 active torsions:
REMARK  status: ('A' for Active; 'I' for Inactive)
REMARK    1  A    between atoms: N_1  and  O_7
REMARK    2  A    between atoms: C_4  and  O_7
REMARK                            x       y       z     vdW  Elec       q    Type
REMARK                         _______ _______ _______ _____ _____    ______ ____
ROOT
ATOM      1  C   UNL     1     150.573 138.420 189.656  0.00  0.00    +0.000 C 
ATOM      2  C   UNL     1     149.868 138.489 189.501  0.00  0.00    +0.000 C 
ATOM      3  C   UNL     1     150.921 138.532 189.055  0.00  0.00    +0.000 C 
ATOM      4  O   UNL     1     149.795 138.641 188.808  0.00  0.00    +0.000 OA
ATOM      5  O   UNL     1     150.625 138.270 190.345  0.00  0.00    +0.000 OA
ATOM      6  C   UNL     1     149.513 138.379 190.097  0.00  0.00    +0.000 C 
ATOM      7  C   UNL     1     150.476 138.667 188.526  0.00  0.00    +0.000 C 
ATOM      8  C   UNL     1     149.959 138.245 190.622  0.00  0.00    +0.000 C 
ATOM      9  O   UNL     1     148.808 138.402 190.157  0.00  0.00    +0.000 OA
ENDROOT
BRANCH   3  10
ATOM     10  O   UNL     1     151.611 138.470 189.180  0.00  0.00    +0.000 OA
BRANCH  10  11
ATOM     11  N   UNL     1     152.070 138.557 188.652  0.00  0.00    +0.000 N 
ATOM     12  O   UNL     1     152.184 139.212 188.392  0.00  0.00    +0.000 OA
ATOM     13  O   UNL     1     152.399 137.994 188.401  0.00  0.00    +0.000 OA
ENDBRANCH  10  11
ENDBRANCH   3  10
TORSDOF 2
ENDMDL
MODEL 4
REMARK VINA RESULT:      -6.2     32.471     33.246
REMARK  Name = 
REMARK  2 active torsions:
REMARK  status: ('A' for Active; 'I' for Inactive)
REMARK    1  A    between atoms: N_1  and  O_7
REMARK    2  A    between atoms: C_4  and  O_7
REMARK                            x       y       z     vdW  Elec       q    Type
REMARK                         _______ _______ _______ _____ _____    ______ ____
ROOT
ATOM      1  C   UNL     1     151.125 139.155 188.518  0.00  0.00    +0.000 C 
ATOM      2  C   UNL     1     151.356 138.502 188.733  0.00  0.00    +0.000 C 
ATOM      3  C   UNL     1     150.433 139.172 188.640  0.00  0.00    +0.000 C 
ATOM      4  O   UNL     1     150.801 138.129 188.983  0.00  0.00    +0.000 OA
ATOM      5  O   UNL     1     151.687 139.508 188.274  0.00  0.00    +0.000 OA
ATOM      6  C   UNL     1     152.048 138.476 188.614  0.00  0.00    +0.000 C 
ATOM      7  C   UNL     1     150.209 138.566 188.920  0.00  0.00    +0.000 C 
ATOM      8  C   UNL     1     152.266 139.081 188.335  0.00  0.00    +0.000 C 
ATOM      9  O   UNL     1     152.461 137.920 188.757  0.00  0.00    +0.000 OA
ENDROOT
BRANCH   3  10
ATOM     10  O   UNL     1     150.185 139.800 188.438  0.00  0.00    +0.000 OA
BRANCH  10  11
ATOM     11  N   UNL     1     149.503 139.951 188.532  0.00  0.00    +0.000 N 
ATOM     12  O   UNL     1     149.037 139.802 188.012  0.00  0.00    +0.000 OA
ATOM     13  O   UNL     1     149.306 140.243 189.136  0.00  0.00    +0.000 OA
ENDBRANCH  10  11
ENDBRANCH   3  10
TORSDOF 2
ENDMDL
MODEL 5
REMARK VINA RESULT:      -6.0     31.980     32.593
REMARK  Name = 
REMARK  2 active torsions:
REMARK  status: ('A' for Active; 'I' for Inactive)
REMARK    1  A    between atoms: N_1  and  O_7
REMARK    2  A    between atoms: C_4  and  O_7
REMARK                            x       y       z     vdW  Elec       q    Type
REMARK                         _______ _______ _______ _____ _____    ______ ____
ROOT
ATOM      1  C   UNL     1     149.268 139.363 189.386  0.00  0.00    +0.000 C 
ATOM      2  C   UNL     1     149.625 139.517 188.774  0.00  0.00    +0.000 C 
ATOM      3  C   UNL     1     149.513 138.743 189.610  0.00  0.00    +0.000 C 
ATOM      4  O   UNL     1     150.084 138.989 188.633  0.00  0.00    +0.000 OA
ATOM      5  O   UNL     1     148.820 139.896 189.510  0.00  0.00    +0.000 OA
ATOM      6  C   UNL     1     149.386 140.136 188.544  0.00  0.00    +0.000 C 
ATOM      7  C   UNL     1     150.008 138.494 189.175  0.00  0.00    +0.000 C 
ATOM      8  C   UNL     1     148.894 140.381 188.980  0.00  0.00    +0.000 C 
ATOM      9  O   UNL     1     149.609 140.462 187.957  0.00  0.00    +0.000 OA
ENDROOT
BRANCH   3  10
ATOM     10  O   UNL     1     149.180 138.571 190.207  0.00  0.00    +0.000 OA
BRANCH  10  11
ATOM     11  N   UNL     1     149.328 137.961 190.525  0.00  0.00    +0.000 N 
ATOM     12  O   UNL     1     149.909 137.912 190.937  0.00  0.00    +0.000 OA
ATOM     13  O   UNL     1     148.897 137.419 190.423  0.00  0.00    +0.000 OA
ENDBRANCH  10  11
ENDBRANCH   3  10
TORSDOF 2
ENDMDL
MODEL 6
REMARK VINA RESULT:      -6.0     26.741     27.459
REMARK  Name = 
REMARK  2 active torsions:
REMARK  status: ('A' for Active; 'I' for Inactive)
REMARK    1  A    between atoms: N_1  and  O_7
REMARK    2  A    between atoms: C_4  and  O_7
REMARK                            x       y       z     vdW  Elec       q    Type
REMARK                         _______ _______ _______ _____ _____    ______ ____
ROOT
ATOM      1  C   UNL     1     106.137 133.367 175.822  0.00  0.00    +0.000 C 
ATOM      2  C   UNL     1     106.797 133.320 176.118  0.00  0.00    +0.000 C 
ATOM      3  C   UNL     1     106.101 132.862 175.335  0.00  0.00    +0.000 C 
ATOM      4  O   UNL     1     107.155 132.787 175.808  0.00  0.00    +0.000 OA
ATOM      5  O   UNL     1     105.799 133.900 176.141  0.00  0.00    +0.000 OA
ATOM      6  C   UNL     1     106.842 133.823 176.607  0.00  0.00    +0.000 C 
ATOM      7  C   UNL     1     106.701 132.495 175.304  0.00  0.00    +0.000 C 
ATOM      8  C   UNL     1     106.243 134.186 176.635  0.00  0.00    +0.000 C 
ATOM      9  O   UNL     1     107.411 133.943 177.011  0.00  0.00    +0.000 OA
ENDROOT
BRANCH   3  10
ATOM     10  O   UNL     1     105.465 132.887 175.031  0.00  0.00    +0.000 OA
BRANCH  10  11
ATOM     11  N   UNL     1     105.298 132.417 174.535  0.00  0.00    +0.000 N 
ATOM     12  O   UNL     1     105.454 132.556 173.853  0.00  0.00    +0.000 OA
ATOM     13  O   UNL     1     104.981 131.825 174.731  0.00  0.00    +0.000 OA
ENDBRANCH  10  11
ENDBRANCH   3  10
TORSDOF 2
ENDMDL
MODEL 7
REMARK VINA RESULT:      -5.9     26.744     27.463
REMARK  Name = 
REMARK  2 active torsions:
REMARK  status: ('A' for Active; 'I' for Inactive)
REMARK    1  A    between atoms: N_1  and  O_7
REMARK    2  A    between atoms: C_4  and  O_7
REMARK                            x       y       z     vdW  Elec       q    Type
REMARK                         _______ _______ _______ _____ _____    ______ ____
ROOT
ATOM      1  C   UNL     1     105.559 132.378 174.887  0.00  0.00    +0.000 C 
ATOM      2  C   UNL     1     104.969 132.692 175.169  0.00  0.00    +0.000 C 
ATOM      3  C   UNL     1     106.102 132.579 175.286  0.00  0.00    +0.000 C 
ATOM      4  O   UNL     1     105.160 133.080 175.736  0.00  0.00    +0.000 OA
ATOM      5  O   UNL     1     105.350 131.999 174.328  0.00  0.00    +0.000 OA
ATOM      6  C   UNL     1     104.421 132.496 174.776  0.00  0.00    +0.000 C 
ATOM      7  C   UNL     1     105.891 133.004 175.807  0.00  0.00    +0.000 C 
ATOM      8  C   UNL     1     104.635 132.073 174.259  0.00  0.00    +0.000 C 
ATOM      9  O   UNL     1     103.752 132.698 174.888  0.00  0.00    +0.000 OA
ENDROOT
BRANCH   3  10
ATOM     10  O   UNL     1     106.689 132.285 175.031  0.00  0.00    +0.000 OA
BRANCH  10  11
ATOM     11  N   UNL     1     107.303 132.391 175.360  0.00  0.00    +0.000 N 
ATOM     12  O   UNL     1     107.513 131.933 175.865  0.00  0.00    +0.000 OA
ATOM     13  O   UNL     1     107.686 132.947 175.178  0.00  0.00    +0.000 OA
ENDBRANCH  10  11
ENDBRANCH   3  10
TORSDOF 2
ENDMDL
MODEL 8
REMARK VINA RESULT:      -5.9     63.325     63.827
REMARK  Name = 
REMARK  2 active torsions:
REMARK  status: ('A' for Active; 'I' for Inactive)
REMARK    1  A    between atoms: N_1  and  O_7
REMARK    2  A    between atoms: C_4  and  O_7
REMARK                            x       y       z     vdW  Elec       q    Type
REMARK                         _______ _______ _______ _____ _____    ______ ____
ROOT
ATOM      1  C   UNL     1     102.475 138.572 123.954  0.00  0.00    +0.000 C 
ATOM      2  C   UNL     1     102.597 139.078 123.450  0.00  0.00    +0.000 C 
ATOM      3  C   UNL     1     101.985 138.834 124.386  0.00  0.00    +0.000 C 
ATOM      4  O   UNL     1     102.180 139.642 123.579  0.00  0.00    +0.000 OA
ATOM      5  O   UNL     1     102.896 138.022 123.810  0.00  0.00    +0.000 OA
ATOM      6  C   UNL     1     103.086 138.824 123.014  0.00  0.00    +0.000 C 
ATOM      7  C   UNL     1     101.788 139.479 124.183  0.00  0.00    +0.000 C 
ATOM      8  C   UNL     1     103.280 138.181 123.218  0.00  0.00    +0.000 C 
ATOM      9  O   UNL     1     103.343 139.168 122.452  0.00  0.00    +0.000 OA
ENDROOT
BRANCH   3  10
ATOM     10  O   UNL     1     101.850 138.358 124.887  0.00  0.00    +0.000 OA
BRANCH  10  11
ATOM     11  N   UNL     1     101.383 138.509 125.393  0.00  0.00    +0.000 N 
ATOM     12  O   UNL     1     100.695 138.348 125.293  0.00  0.00    +0.000 OA
ATOM     13  O   UNL     1     101.613 138.813 125.979  0.00  0.00    +0.000 OA
ENDBRANCH  10  11
ENDBRANCH   3  10
TORSDOF 2
ENDMDL
MODEL 9
REMARK VINA RESULT:      -5.6     63.757     64.235
REMARK  Name = 
REMARK  2 active torsions:
REMARK  status: ('A' for Active; 'I' for Inactive)
REMARK    1  A    between atoms: N_1  and  O_7
REMARK    2  A    between atoms: C_4  and  O_7
REMARK                            x       y       z     vdW  Elec       q    Type
REMARK                         _______ _______ _______ _____ _____    ______ ____
ROOT
ATOM      1  C   UNL     1     102.046 138.964 123.946  0.00  0.00    +0.000 C 
ATOM      2  C   UNL     1     101.687 139.540 124.201  0.00  0.00    +0.000 C 
ATOM      3  C   UNL     1     102.520 139.210 123.489  0.00  0.00    +0.000 C 
ATOM      4  O   UNL     1     101.947 140.130 123.897  0.00  0.00    +0.000 OA
ATOM      5  O   UNL     1     101.775 138.390 124.259  0.00  0.00    +0.000 OA
ATOM      6  C   UNL     1     101.211 139.302 124.660  0.00  0.00    +0.000 C 
ATOM      7  C   UNL     1     102.483 139.912 123.439  0.00  0.00    +0.000 C 
ATOM      8  C   UNL     1     101.250 138.603 124.707  0.00  0.00    +0.000 C 
ATOM      9  O   UNL     1     100.758 139.710 125.019  0.00  0.00    +0.000 OA
ENDROOT
BRANCH   3  10
ATOM     10  O   UNL     1     102.883 138.666 123.227  0.00  0.00    +0.000 OA
BRANCH  10  11
ATOM     11  N   UNL     1     103.401 138.785 122.764  0.00  0.00    +0.000 N 
ATOM     12  O   UNL     1     104.045 138.980 123.002  0.00  0.00    +0.000 OA
ATOM     13  O   UNL     1     103.264 138.706 122.083  0.00  0.00    +0.000 OA
ENDBRANCH  10  11
ENDBRANCH   3  10
TORSDOF 2
ENDMDL
MODEL 10
REMARK VINA RESULT:      -5.6     35.239     35.924
REMARK  Name = 
REMARK  2 active torsions:
REMARK  status: ('A' for Active; 'I' for Inactive)
REMARK    1  A    between atoms: N_1  and  O_7
REMARK    2  A    between atoms: C_4  and  O_7
REMARK                            x       y       z     vdW  Elec       q    Type
REMARK                         _______ _______ _______ _____ _____    ______ ____
ROOT
ATOM      1  C   UNL     1     100.577 135.289 164.061  0.00  0.00    +0.000 C 
ATOM      2  C   UNL     1     100.923 134.704 163.810  0.00  0.00    +0.000 C 
ATOM      3  C   UNL     1     100.436 135.163 164.738  0.00  0.00    +0.000 C 
ATOM      4  O   UNL     1     100.990 134.228 164.337  0.00  0.00    +0.000 OA
ATOM      5  O   UNL     1     100.520 135.748 163.526  0.00  0.00    +0.000 OA
ATOM      6  C   UNL     1     101.067 134.822 163.133  0.00  0.00    +0.000 C 
ATOM      7  C   UNL     1     100.674 134.529 164.933  0.00  0.00    +0.000 C 
ATOM      8  C   UNL     1     100.829 135.454 162.943  0.00  0.00    +0.000 C 
ATOM      9  O   UNL     1     101.404 134.368 162.707  0.00  0.00    +0.000 OA
ENDROOT
BRANCH   3  10
ATOM     10  O   UNL     1     100.098 135.720 165.006  0.00  0.00    +0.000 OA
BRANCH  10  11
ATOM     11  N   UNL     1      99.890 135.711 165.679  0.00  0.00    +0.000 N 
ATOM     12  O   UNL     1     100.338 135.935 166.187  0.00  0.00    +0.000 OA
ATOM     13  O   UNL     1      99.246 135.480 165.825  0.00  0.00    +0.000 OA
ENDBRANCH  10  11
ENDBRANCH   3  10
TORSDOF 2
ENDMDL
MODEL 11
REMARK VINA RESULT:      -5.6     48.591     49.071
REMARK  Name = 
REMARK  2 active torsions:
REMARK  status: ('A' for Active; 'I' for Inactive)
REMARK    1  A    between atoms: N_1  and  O_7
REMARK    2  A    between atoms: C_4  and  O_7
REMARK                            x       y       z     vdW  Elec       q    Type
REMARK                         _______ _______ _______ _____ _____    ______ ____
ROOT
ATOM      1  C   UNL     1     108.601 129.747 135.149  0.00  0.00    +0.000 C 
ATOM      2  C   UNL     1     108.700 129.329 135.733  0.00  0.00    +0.000 C 
ATOM      3  C   UNL     1     107.977 130.060 135.230  0.00  0.00    +0.000 C 
ATOM      4  O   UNL     1     108.134 129.393 136.164  0.00  0.00    +0.000 OA
ATOM      5  O   UNL     1     109.170 129.670 134.735  0.00  0.00    +0.000 OA
ATOM      6  C   UNL     1     109.322 129.012 135.660  0.00  0.00    +0.000 C 
ATOM      7  C   UNL     1     107.672 129.865 135.834  0.00  0.00    +0.000 C 
ATOM      8  C   UNL     1     109.622 129.208 135.057  0.00  0.00    +0.000 C 
ATOM      9  O   UNL     1     109.602 128.560 136.127  0.00  0.00    +0.000 OA
ENDROOT
BRANCH   3  10
ATOM     10  O   UNL     1     107.858 130.473 134.672  0.00  0.00    +0.000 OA
BRANCH  10  11
ATOM     11  N   UNL     1     107.252 130.828 134.625  0.00  0.00    +0.000 N 
ATOM     12  O   UNL     1     106.706 130.543 134.264  0.00  0.00    +0.000 OA
ATOM     13  O   UNL     1     107.206 131.453 134.936  0.00  0.00    +0.000 OA
ENDBRANCH  10  11
ENDBRANCH   3  10
TORSDOF 2
ENDMDL
MODEL 12
REMARK VINA RESULT:      -5.6     27.761     28.547
REMARK  Name = 
REMARK  2 active torsions:
REMARK  status: ('A' for Active; 'I' for Inactive)
REMARK    1  A    between atoms: N_1  and  O_7
REMARK    2  A    between atoms: C_4  and  O_7
REMARK                            x       y       z     vdW  Elec       q    Type
REMARK                         _______ _______ _______ _____ _____    ______ ____
ROOT
ATOM      1  C   UNL     1     104.830 132.690 175.243  0.00  0.00    +0.000 C 
ATOM      2  C   UNL     1     105.347 132.357 174.859  0.00  0.00    +0.000 C 
ATOM      3  C   UNL     1     104.215 132.459 174.992  0.00  0.00    +0.000 C 
ATOM      4  O   UNL     1     105.041 131.927 174.380  0.00  0.00    +0.000 OA
ATOM      5  O   UNL     1     105.152 133.111 175.711  0.00  0.00    +0.000 OA
ATOM      6  C   UNL     1     105.966 132.583 175.104  0.00  0.00    +0.000 C 
ATOM      7  C   UNL     1     104.312 131.996 174.470  0.00  0.00    +0.000 C 
ATOM      8  C   UNL     1     105.866 133.043 175.623  0.00  0.00    +0.000 C 
ATOM      9  O   UNL     1     106.597 132.375 174.859  0.00  0.00    +0.000 OA
ENDROOT
BRANCH   3  10
ATOM     10  O   UNL     1     103.695 132.770 175.351  0.00  0.00    +0.000 OA
BRANCH  10  11
ATOM     11  N   UNL     1     103.025 132.611 175.201  0.00  0.00    +0.000 N 
ATOM     12  O   UNL     1     102.683 132.977 174.693  0.00  0.00    +0.000 OA
ATOM     13  O   UNL     1     102.718 132.095 175.558  0.00  0.00    +0.000 OA
ENDBRANCH  10  11
ENDBRANCH   3  10
TORSDOF 2
ENDMDL
MODEL 13
REMARK VINA RESULT:      -5.5     35.020     35.617
REMARK  Name = 
REMARK  2 active torsions:
REMARK  status: ('A' for Active; 'I' for Inactive)
REMARK    1  A    between atoms: N_1  and  O_7
REMARK    2  A    between atoms: C_4  and  O_7
REMARK                            x       y       z     vdW  Elec       q    Type
REMARK                         _______ _______ _______ _____ _____    ______ ____
ROOT
ATOM      1  C   UNL     1     100.634 135.061 165.225  0.00  0.00    +0.000 C 
ATOM      2  C   UNL     1     100.185 135.611 165.374  0.00  0.00    +0.000 C 
ATOM      3  C   UNL     1     100.622 134.977 164.527  0.00  0.00    +0.000 C 
ATOM      4  O   UNL     1      99.905 135.854 164.765  0.00  0.00    +0.000 OA
ATOM      5  O   UNL     1     100.902 134.834 165.839  0.00  0.00    +0.000 OA
ATOM      6  C   UNL     1     100.191 135.702 166.071  0.00  0.00    +0.000 C 
ATOM      7  C   UNL     1     100.190 135.442 164.223  0.00  0.00    +0.000 C 
ATOM      8  C   UNL     1     100.623 135.237 166.370  0.00  0.00    +0.000 C 
ATOM      9  O   UNL     1      99.816 136.192 166.417  0.00  0.00    +0.000 OA
ENDROOT
BRANCH   3  10
ATOM     10  O   UNL     1     101.053 134.446 164.357  0.00  0.00    +0.000 OA
BRANCH  10  11
ATOM     11  N   UNL     1     101.096 134.234 163.687  0.00  0.00    +0.000 N 
ATOM     12  O   UNL     1     100.720 133.666 163.474  0.00  0.00    +0.000 OA
ATOM     13  O   UNL     1     101.510 134.591 163.251  0.00  0.00    +0.000 OA
ENDBRANCH  10  11
ENDBRANCH   3  10
TORSDOF 2
ENDMDL
MODEL 14
REMARK VINA RESULT:      -5.4    101.655    102.475
REMARK  Name = 
REMARK  2 active torsions:
REMARK  status: ('A' for Active; 'I' for Inactive)
REMARK    1  A    between atoms: N_1  and  O_7
REMARK    2  A    between atoms: C_4  and  O_7
REMARK                            x       y       z     vdW  Elec       q    Type
REMARK                         _______ _______ _______ _____ _____    ______ ____
ROOT
ATOM      1  C   UNL     1     135.759 155.403  83.625  0.00  0.00    +0.000 C 
ATOM      2  C   UNL     1     135.438 154.931  84.073  0.00  0.00    +0.000 C 
ATOM      3  C   UNL     1     135.279 155.577  83.141  0.00  0.00    +0.000 C 
ATOM      4  O   UNL     1     134.768 154.823  83.856  0.00  0.00    +0.000 OA
ATOM      5  O   UNL     1     136.421 155.498  83.855  0.00  0.00    +0.000 OA
ATOM      6  C   UNL     1     135.912 154.753  84.560  0.00  0.00    +0.000 C 
ATOM      7  C   UNL     1     134.671 155.241  83.255  0.00  0.00    +0.000 C 
ATOM      8  C   UNL     1     136.516 155.089  84.443  0.00  0.00    +0.000 C 
ATOM      9  O   UNL     1     135.793 154.300  85.091  0.00  0.00    +0.000 OA
ENDROOT
BRANCH   3  10
ATOM     10  O   UNL     1     135.568 156.037  82.692  0.00  0.00    +0.000 OA
BRANCH  10  11
ATOM     11  N   UNL     1     135.185 156.291  82.159  0.00  0.00    +0.000 N 
ATOM     12  O   UNL     1     134.819 156.897  82.248  0.00  0.00    +0.000 OA
ATOM     13  O   UNL     1     135.176 155.936  81.556  0.00  0.00    +0.000 OA
ENDBRANCH  10  11
ENDBRANCH   3  10
TORSDOF 2
ENDMDL
MODEL 15
REMARK VINA RESULT:      -5.4     84.524     84.999
REMARK  Name = 
REMARK  2 active torsions:
REMARK  status: ('A' for Active; 'I' for Inactive)
REMARK    1  A    between atoms: N_1  and  O_7
REMARK    2  A    between atoms: C_4  and  O_7
REMARK                            x       y       z     vdW  Elec       q    Type
REMARK                         _______ _______ _______ _____ _____    ______ ____
ROOT
ATOM      1  C   UNL     1      94.051 136.814 103.128  0.00  0.00    +0.000 C 
ATOM      2  C   UNL     1      93.807 136.680 103.798  0.00  0.00    +0.000 C 
ATOM      3  C   UNL     1      93.698 137.375 102.895  0.00  0.00    +0.000 C 
ATOM      4  O   UNL     1      93.308 137.162 103.964  0.00  0.00    +0.000 OA
ATOM      5  O   UNL     1      94.544 136.328 102.981  0.00  0.00    +0.000 OA
ATOM      6  C   UNL     1      94.155 136.120 104.038  0.00  0.00    +0.000 C 
ATOM      7  C   UNL     1      93.242 137.607 103.379  0.00  0.00    +0.000 C 
ATOM      8  C   UNL     1      94.608 135.892 103.554  0.00  0.00    +0.000 C 
ATOM      9  O   UNL     1      94.060 135.829 104.677  0.00  0.00    +0.000 OA
ENDROOT
BRANCH   3  10
ATOM     10  O   UNL     1      93.920 137.525 102.243  0.00  0.00    +0.000 OA
BRANCH  10  11
ATOM     11  N   UNL     1      93.638 138.071 101.897  0.00  0.00    +0.000 N 
ATOM     12  O   UNL     1      93.944 138.713 101.947  0.00  0.00    +0.000 OA
ATOM     13  O   UNL     1      93.064 137.961 101.514  0.00  0.00    +0.000 OA
ENDBRANCH  10  11
ENDBRANCH   3  10
TORSDOF 2
ENDMDL
MODEL 16
REMARK VINA RESULT:      -5.3    102.388    103.216
REMARK  Name = 
REMARK  2 active torsions:
REMARK  status: ('A' for Active; 'I' for Inactive)
REMARK    1  A    between atoms: N_1  and  O_7
REMARK    2  A    between atoms: C_4  and  O_7
REMARK                            x       y       z     vdW  Elec       q    Type
REMARK                         _______ _______ _______ _____ _____    ______ ____
ROOT
ATOM      1  C   UNL     1     135.357 157.156  83.292  0.00  0.00    +0.000 C 
ATOM      2  C   UNL     1     135.077 157.372  82.659  0.00  0.00    +0.000 C 
ATOM      3  C   UNL     1     135.481 156.467  83.231  0.00  0.00    +0.000 C 
ATOM      4  O   UNL     1     135.034 156.811  82.220  0.00  0.00    +0.000 OA
ATOM      5  O   UNL     1     135.392 157.723  83.713  0.00  0.00    +0.000 OA
ATOM      6  C   UNL     1     134.950 158.061  82.712  0.00  0.00    +0.000 C 
ATOM      7  C   UNL     1     135.295 156.231  82.594  0.00  0.00    +0.000 C 
ATOM      8  C   UNL     1     135.135 158.291  83.348  0.00  0.00    +0.000 C 
ATOM      9  O   UNL     1     134.674 158.461  82.197  0.00  0.00    +0.000 OA
ENDROOT
BRANCH   3  10
ATOM     10  O   UNL     1     135.755 156.233  83.836  0.00  0.00    +0.000 OA
BRANCH  10  11
ATOM     11  N   UNL     1     135.904 155.548  83.909  0.00  0.00    +0.000 N 
ATOM     12  O   UNL     1     135.398 155.103  84.145  0.00  0.00    +0.000 OA
ATOM     13  O   UNL     1     136.547 155.328  83.746  0.00  0.00    +0.000 OA
ENDBRANCH  10  11
ENDBRANCH   3  10
TORSDOF 2
ENDMDL
MODEL 17
REMARK VINA RESULT:      -5.3     83.994     84.472
REMARK  Name = 
REMARK  2 active torsions:
REMARK  status: ('A' for Active; 'I' for Inactive)
REMARK    1  A    between atoms: N_1  and  O_7
REMARK    2  A    between atoms: C_4  and  O_7
REMARK                            x       y       z     vdW  Elec       q    Type
REMARK                         _______ _______ _______ _____ _____    ______ ____
ROOT
ATOM      1  C   UNL     1      94.345 136.510 103.015  0.00  0.00    +0.000 C 
ATOM      2  C   UNL     1      93.977 136.667 103.619  0.00  0.00    +0.000 C 
ATOM      3  C   UNL     1      94.758 135.961 103.169  0.00  0.00    +0.000 C 
ATOM      4  O   UNL     1      94.170 136.213 104.134  0.00  0.00    +0.000 OA
ATOM      5  O   UNL     1      94.142 136.969 102.517  0.00  0.00    +0.000 OA
ATOM      6  C   UNL     1      93.562 137.215 103.474  0.00  0.00    +0.000 C 
ATOM      7  C   UNL     1      94.673 135.760 103.838  0.00  0.00    +0.000 C 
ATOM      8  C   UNL     1      93.650 137.412 102.806  0.00  0.00    +0.000 C 
ATOM      9  O   UNL     1      93.122 137.521 103.935  0.00  0.00    +0.000 OA
ENDROOT
BRANCH   3  10
ATOM     10  O   UNL     1      95.127 135.789 102.594  0.00  0.00    +0.000 OA
BRANCH  10  11
ATOM     11  N   UNL     1      95.586 135.256 102.623  0.00  0.00    +0.000 N 
ATOM     12  O   UNL     1      96.261 135.385 102.815  0.00  0.00    +0.000 OA
ATOM     13  O   UNL     1      95.362 134.614 102.460  0.00  0.00    +0.000 OA
ENDBRANCH  10  11
ENDBRANCH   3  10
TORSDOF 2
ENDMDL
MODEL 18
REMARK VINA RESULT:      -5.3    101.662    102.488
REMARK  Name = 
REMARK  2 active torsions:
REMARK  status: ('A' for Active; 'I' for Inactive)
REMARK    1  A    between atoms: N_1  and  O_7
REMARK    2  A    between atoms: C_4  and  O_7
REMARK                            x       y       z     vdW  Elec       q    Type
REMARK                         _______ _______ _______ _____ _____    ______ ____
ROOT
ATOM      1  C   UNL     1     134.481 155.420  83.146  0.00  0.00    +0.000 C 
ATOM      2  C   UNL     1     134.161 155.911  82.718  0.00  0.00    +0.000 C 
ATOM      3  C   UNL     1     133.973 155.142  83.545  0.00  0.00    +0.000 C 
ATOM      4  O   UNL     1     133.463 155.925  82.861  0.00  0.00    +0.000 OA
ATOM      5  O   UNL     1     135.171 155.420  82.989  0.00  0.00    +0.000 OA
ATOM      6  C   UNL     1     134.663 156.193  82.315  0.00  0.00    +0.000 C 
ATOM      7  C   UNL     1     133.347 155.429  83.395  0.00  0.00    +0.000 C 
ATOM      8  C   UNL     1     135.284 155.906  82.467  0.00  0.00    +0.000 C 
ATOM      9  O   UNL     1     134.553 156.695  81.828  0.00  0.00    +0.000 OA
ENDROOT
BRANCH   3  10
ATOM     10  O   UNL     1     134.261 154.661  83.971  0.00  0.00    +0.000 OA
BRANCH  10  11
ATOM     11  N   UNL     1     133.848 154.292  84.407  0.00  0.00    +0.000 N 
ATOM     12  O   UNL     1     133.589 153.662  84.195  0.00  0.00    +0.000 OA
ATOM     13  O   UNL     1     133.707 154.559  85.038  0.00  0.00    +0.000 OA
ENDBRANCH  10  11
ENDBRANCH   3  10
TORSDOF 2
ENDMDL
MODEL 19
REMARK VINA RESULT:      -5.3     63.567     64.045
REMARK  Name = 
REMARK  2 active torsions:
REMARK  status: ('A' for Active; 'I' for Inactive)
REMARK    1  A    between atoms: N_1  and  O_7
REMARK    2  A    between atoms: C_4  and  O_7
REMARK                            x       y       z     vdW  Elec       q    Type
REMARK                         _______ _______ _______ _____ _____    ______ ____
ROOT
ATOM      1  C   UNL     1     101.016 138.293 124.111  0.00  0.00    +0.000 C 
ATOM      2  C   UNL     1     101.288 137.626 124.195  0.00  0.00    +0.000 C 
ATOM      3  C   UNL     1     101.558 138.738 124.154  0.00  0.00    +0.000 C 
ATOM      4  O   UNL     1     101.994 137.673 124.289  0.00  0.00    +0.000 OA
ATOM      5  O   UNL     1     100.317 138.226 124.019  0.00  0.00    +0.000 OA
ATOM      6  C   UNL     1     100.752 137.175 124.153  0.00  0.00    +0.000 C 
ATOM      7  C   UNL     1     102.162 138.391 124.262  0.00  0.00    +0.000 C 
ATOM      8  C   UNL     1     100.152 137.524 124.046  0.00  0.00    +0.000 C 
ATOM      9  O   UNL     1     100.810 136.472 124.211  0.00  0.00    +0.000 OA
ENDROOT
BRANCH   3  10
ATOM     10  O   UNL     1     101.318 139.395 124.075  0.00  0.00    +0.000 OA
BRANCH  10  11
ATOM     11  N   UNL     1     101.764 139.938 124.128  0.00  0.00    +0.000 N 
ATOM     12  O   UNL     1     102.140 140.139 123.556  0.00  0.00    +0.000 OA
ATOM     13  O   UNL     1     101.822 140.262 124.745  0.00  0.00    +0.000 OA
ENDBRANCH  10  11
ENDBRANCH   3  10
TORSDOF 2
ENDMDL
MODEL 20
REMARK VINA RESULT:      -5.3     60.607     61.258
REMARK  Name = 
REMARK  2 active torsions:
REMARK  status: ('A' for Active; 'I' for Inactive)
REMARK    1  A    between atoms: N_1  and  O_7
REMARK    2  A    between atoms: C_4  and  O_7
REMARK                            x       y       z     vdW  Elec       q    Type
REMARK                         _______ _______ _______ _____ _____    ______ ____
ROOT
ATOM      1  C   UNL     1     121.681 132.778 119.676  0.00  0.00    +0.000 C 
ATOM      2  C   UNL     1     120.987 132.966 119.772  0.00  0.00    +0.000 C 
ATOM      3  C   UNL     1     121.787 132.754 118.981  0.00  0.00    +0.000 C 
ATOM      4  O   UNL     1     120.679 133.053 119.135  0.00  0.00    +0.000 OA
ATOM      5  O   UNL     1     121.969 132.696 120.317  0.00  0.00    +0.000 OA
ATOM      6  C   UNL     1     120.873 132.993 120.465  0.00  0.00    +0.000 C 
ATOM      7  C   UNL     1     121.198 132.915 118.629  0.00  0.00    +0.000 C 
ATOM      8  C   UNL     1     121.461 132.831 120.812  0.00  0.00    +0.000 C 
ATOM      9  O   UNL     1     120.254 133.159 120.766  0.00  0.00    +0.000 OA
ENDROOT
BRANCH   3  10
ATOM     10  O   UNL     1     122.457 132.573 118.862  0.00  0.00    +0.000 OA
BRANCH  10  11
ATOM     11  N   UNL     1     122.680 132.480 118.200  0.00  0.00    +0.000 N 
ATOM     12  O   UNL     1     122.846 133.049 117.803  0.00  0.00    +0.000 OA
ATOM     13  O   UNL     1     122.730 131.827 117.954  0.00  0.00    +0.000 OA
ENDBRANCH  10  11
ENDBRANCH   3  10
TORSDOF 2
ENDMDL
