REMARK  Name = 
REMARK  8 active torsions:
REMARK  status: ('A' for Active; 'I' for Inactive)
REMARK    1  A    between atoms: C_1  and  C_6
REMARK    2  A    between atoms: N_2  and  C_11
REMARK    3  A    between atoms: C_3  and  C_8
REMARK    4  A    between atoms: C_7  and  C_9
REMARK    5  A    between atoms: C_9  and  C_14
REMARK    6  A    between atoms: C_10  and  C_19
REMARK    7  A    between atoms: C_14  and  C_15
REMARK    8  A    between atoms: C_15  and  C_19
REMARK                            x       y       z     vdW  Elec       q    Type
REMARK                         _______ _______ _______ _____ _____    ______ ____
ROOT
ATOM      1  C   UNL     1       5.571  -6.736   0.000  0.00  0.00    +0.000 A 
ATOM      2  N   UNL     1       5.081  -6.071   0.000  0.00  0.00    +0.000 N 
ATOM      3  C   UNL     1       5.086  -7.410   0.000  0.00  0.00    +0.000 A 
ATOM      4  C   UNL     1       4.295  -6.333   0.000  0.00  0.00    +0.000 A 
ATOM      5  C   UNL     1       4.300  -7.158   0.000  0.00  0.00    +0.000 A 
ATOM      6  C   UNL     1       3.581  -5.920   0.000  0.00  0.00    +0.000 A 
ATOM      7  C   UNL     1       3.581  -7.575   0.000  0.00  0.00    +0.000 A 
ATOM      8  C   UNL     1       2.868  -7.163   0.000  0.00  0.00    +0.000 A 
ATOM      9  C   UNL     1       2.868  -6.333   0.000  0.00  0.00    +0.000 A 
ENDROOT
BRANCH   3  10
ATOM     10  C   UNL     1       5.081  -8.230   0.000  0.00  0.00    +0.000 A 
ATOM     11  C   UNL     1       4.358  -8.633   0.000  0.00  0.00    +0.000 A 
ATOM     12  C   UNL     1       5.785  -8.648   0.000  0.00  0.00    +0.000 A 
ATOM     13  C   UNL     1       5.061  -9.880   0.000  0.00  0.00    +0.000 A 
ATOM     14  C   UNL     1       4.348  -9.458   0.000  0.00  0.00    +0.000 A 
ATOM     15  C   UNL     1       5.780  -9.468   0.000  0.00  0.00    +0.000 A 
ATOM     16  F   UNL     1       5.052 -10.705   0.000  0.00  0.00    +0.000 F 
ENDBRANCH   3  10
BRANCH   2  17
ATOM     17  C   UNL     1       5.479  -5.348   0.000  0.00  0.00    +0.000 C 
ATOM     18  C   UNL     1       5.057  -4.639   0.000  0.00  0.00    +0.000 C 
ATOM     19  C   UNL     1       6.304  -5.338   0.000  0.00  0.00    +0.000 C 
ENDBRANCH   2  17
BRANCH   1  20
ATOM     20  C   UNL     1       6.396  -6.731   0.000  0.00  0.00    +0.000 C 
ATOM     21  C   UNL     1       6.804  -6.013   0.000  0.00  0.00    +0.000 C 
BRANCH  21  22
ATOM     22  C   UNL     1       7.629  -6.008   0.000  0.00  0.00    +0.000 C 
ATOM     23  O   UNL     1       8.036  -5.290   0.000  0.00  0.00    +0.000 OA
BRANCH  22  24
ATOM     24  C   UNL     1       8.046  -6.721   0.000  0.00  0.00    +0.000 C 
BRANCH  24  25
ATOM     25  C   UNL     1       8.871  -6.716   0.000  0.00  0.00    +0.000 C 
ATOM     26  O   UNL     1       9.279  -5.998   0.000  0.00  0.00    +0.000 OA
BRANCH  25  27
ATOM     27  C   UNL     1       9.288  -7.425   0.000  0.00  0.00    +0.000 C 
BRANCH  27  28
ATOM     28  C   UNL     1      10.113  -7.420   0.000  0.00  0.00    +0.000 C 
ATOM     29  O   UNL     1      10.526  -8.133   0.000  0.00  0.00    +0.000 OA
ATOM     30  O   UNL     1      10.521  -6.707   0.000  0.00  0.00    +0.000 OA
ENDBRANCH  27  28
ENDBRANCH  25  27
ENDBRANCH  24  25
ENDBRANCH  22  24
ENDBRANCH  21  22
ENDBRANCH   1  20
TORSDOF 8
