REMARK  Name = 
REMARK  11 active torsions:
REMARK  status: ('A' for Active; 'I' for Inactive)
REMARK    1  A    between atoms: C_1  and  C_2
REMARK    2  A    between atoms: C_2  and  C_6
REMARK    3  A    between atoms: C_3  and  O_4
REMARK    4  A    between atoms: O_4  and  C_7
REMARK    5  A    between atoms: C_6  and  C_9
REMARK    6  A    between atoms: C_7  and  C_8
REMARK    7  A    between atoms: C_8  and  C_14
REMARK    8  A    between atoms: C_9  and  C_11
REMARK    9  A    between atoms: N_10  and  C_14
REMARK   10  A    between atoms: N_10  and  C_16
REMARK   11  A    between atoms: C_16  and  C_19
REMARK                            x       y       z     vdW  Elec       q    Type
REMARK                         _______ _______ _______ _____ _____    ______ ____
ROOT
ATOM      1  C   UNL     1       2.479  -5.404   0.000  0.00  0.00    +0.000 A 
ATOM      2  C   UNL     1       3.087  -5.062   0.000  0.00  0.00    +0.000 A 
ATOM      3  C   UNL     1       2.479  -6.117   0.000  0.00  0.00    +0.000 A 
ATOM      4  C   UNL     1       3.700  -5.404   0.000  0.00  0.00    +0.000 A 
ATOM      5  C   UNL     1       3.087  -6.463   0.000  0.00  0.00    +0.000 A 
ATOM      6  C   UNL     1       3.700  -6.117   0.000  0.00  0.00    +0.000 A 
ENDROOT
BRANCH   1   7
ATOM      7  C   UNL     1       1.867  -5.075   0.000  0.00  0.00    +0.000 C 
ATOM      8  O   UNL     1       1.867  -4.367   0.000  0.00  0.00    +0.000 OA
BRANCH   7   9
ATOM      9  C   UNL     1       1.267  -5.429   0.000  0.00  0.00    +0.000 C 
BRANCH   9  10
ATOM     10  C   UNL     1       0.650  -5.075   0.000  0.00  0.00    +0.000 C 
BRANCH  10  11
ATOM     11  C   UNL     1       0.042  -5.454   0.000  0.00  0.00    +0.000 A 
ATOM     12  C   UNL     1       0.042  -6.167   0.000  0.00  0.00    +0.000 A 
ATOM     13  C   UNL     1      -0.571  -5.100   0.000  0.00  0.00    +0.000 A 
ATOM     14  C   UNL     1      -1.196  -5.454   0.000  0.00  0.00    +0.000 A 
ATOM     15  C   UNL     1      -0.571  -6.529   0.000  0.00  0.00    +0.000 A 
ATOM     16  C   UNL     1      -1.196  -6.167   0.000  0.00  0.00    +0.000 A 
ENDBRANCH  10  11
ENDBRANCH   9  10
ENDBRANCH   7   9
ENDBRANCH   1   7
BRANCH   2  17
ATOM     17  O   UNL     1       3.087  -4.354   0.000  0.00  0.00    +0.000 OA
BRANCH  17  18
ATOM     18  C   UNL     1       3.704  -3.992   0.000  0.00  0.00    +0.000 C 
BRANCH  18  19
ATOM     19  C   UNL     1       4.338  -4.354   0.000  0.00  0.00    +0.000 C 
ATOM     20  O   UNL     1       4.338  -5.062   0.000  0.00  0.00    +0.000 OA
BRANCH  19  21
ATOM     21  C   UNL     1       4.917  -3.992   0.000  0.00  0.00    +0.000 C 
BRANCH  21  22
ATOM     22  N   UNL     1       5.542  -4.354   0.000  0.00  0.00    +0.000 NA
BRANCH  22  23
ATOM     23  C   UNL     1       6.167  -3.992   0.000  0.00  0.00    +0.000 C 
BRANCH  23  24
ATOM     24  C   UNL     1       6.779  -4.354   0.000  0.00  0.00    +0.000 C 
ATOM     25  C   UNL     1       7.400  -4.004   0.000  0.00  0.00    +0.000 C 
ENDBRANCH  23  24
ENDBRANCH  22  23
ENDBRANCH  21  22
ENDBRANCH  19  21
ENDBRANCH  18  19
ENDBRANCH  17  18
ENDBRANCH   2  17
TORSDOF 11
