MODEL 1
REMARK VINA RESULT:     -10.5      0.000      0.000
REMARK  Name = 
REMARK  2 active torsions:
REMARK  status: ('A' for Active; 'I' for Inactive)
REMARK    1  A    between atoms: C_1  and  C_7
REMARK    2  A    between atoms: S_3  and  C_4
REMARK                            x       y       z     vdW  Elec       q    Type
REMARK                         _______ _______ _______ _____ _____    ______ ____
ROOT
ATOM      1  C   UNL     1     125.471 155.866 186.229  0.00  0.00    +0.000 C 
ATOM      2  N   UNL     1     124.775 155.876 186.356  0.00  0.00    +0.000 NA
ATOM      3  C   UNL     1     124.602 155.292 186.685  0.00  0.00    +0.000 C 
ATOM      4  C   UNL     1     125.722 155.277 186.480  0.00  0.00    +0.000 A 
ATOM      5  C   UNL     1     125.189 154.915 186.764  0.00  0.00    +0.000 A 
ATOM      6  O   UNL     1     123.958 155.094 186.907  0.00  0.00    +0.000 OA
ATOM      7  O   UNL     1     126.003 156.235 185.940  0.00  0.00    +0.000 OA
ATOM      8  C   UNL     1     126.395 155.009 186.488  0.00  0.00    +0.000 A 
ATOM      9  C   UNL     1     125.304 154.275 187.067  0.00  0.00    +0.000 A 
ATOM     10  C   UNL     1     126.534 154.376 186.782  0.00  0.00    +0.000 A 
ATOM     11  C   UNL     1     125.979 153.999 187.079  0.00  0.00    +0.000 A 
ENDROOT
BRANCH   1  13
ATOM     12  C   UNL     1     125.351 157.719 185.997  0.00  0.00    +0.000 A 
ATOM     13  C   UNL     1     125.347 156.495 185.933  0.00  0.00    +0.000 A 
ATOM     14  C   UNL     1     125.476 157.084 186.294  0.00  0.00    +0.000 A 
ATOM     15  C   UNL     1     125.097 157.759 185.336  0.00  0.00    +0.000 A 
ATOM     16  C   UNL     1     125.093 156.531 185.273  0.00  0.00    +0.000 A 
ATOM     17  C   UNL     1     124.968 157.165 184.975  0.00  0.00    +0.000 A 
ATOM     18 CL   UNL     1     124.970 158.393 185.034  0.00  0.00    +0.000 Cl
BRANCH  12  19
ATOM     19  S   UNL     1     125.480 158.317 186.358  0.00  0.00    +0.000 S 
ATOM     20  O   UNL     1     125.925 158.840 186.541  0.00  0.00    +0.000 OA
ATOM     21  O   UNL     1     126.142 158.330 186.100  0.00  0.00    +0.000 OA
ATOM     22  N   UNL     1     124.984 158.601 186.756  0.00  0.00    +0.000 NA
ENDBRANCH  12  19
ENDBRANCH   1  13
TORSDOF 2
ENDMDL
MODEL 2
REMARK VINA RESULT:      -9.9      1.712      3.319
REMARK  Name = 
REMARK  2 active torsions:
REMARK  status: ('A' for Active; 'I' for Inactive)
REMARK    1  A    between atoms: C_1  and  C_7
REMARK    2  A    between atoms: S_3  and  C_4
REMARK                            x       y       z     vdW  Elec       q    Type
REMARK                         _______ _______ _______ _____ _____    ______ ____
ROOT
ATOM      1  C   UNL     1     125.435 156.554 185.988  0.00  0.00    +0.000 C 
ATOM      2  N   UNL     1     126.130 156.481 186.097  0.00  0.00    +0.000 NA
ATOM      3  C   UNL     1     126.401 157.106 186.228  0.00  0.00    +0.000 C 
ATOM      4  C   UNL     1     125.281 157.222 186.051  0.00  0.00    +0.000 A 
ATOM      5  C   UNL     1     125.874 157.570 186.200  0.00  0.00    +0.000 A 
ATOM      6  O   UNL     1     127.078 157.265 186.365  0.00  0.00    +0.000 OA
ATOM      7  O   UNL     1     124.841 156.197 185.838  0.00  0.00    +0.000 OA
ATOM      8  C   UNL     1     124.651 157.575 185.991  0.00  0.00    +0.000 A 
ATOM      9  C   UNL     1     125.865 158.282 186.294  0.00  0.00    +0.000 A 
ATOM     10  C   UNL     1     124.617 158.280 186.080  0.00  0.00    +0.000 A 
ATOM     11  C   UNL     1     125.235 158.644 186.234  0.00  0.00    +0.000 A 
ENDROOT
BRANCH   1  13
ATOM     12  C   UNL     1     125.470 154.722 186.365  0.00  0.00    +0.000 A 
ATOM     13  C   UNL     1     125.455 155.854 185.897  0.00  0.00    +0.000 A 
ATOM     14  C   UNL     1     125.450 155.428 186.456  0.00  0.00    +0.000 A 
ATOM     15  C   UNL     1     125.496 154.447 185.712  0.00  0.00    +0.000 A 
ATOM     16  C   UNL     1     125.481 155.583 185.244  0.00  0.00    +0.000 A 
ATOM     17  C   UNL     1     125.502 154.879 185.152  0.00  0.00    +0.000 A 
ATOM     18 CL   UNL     1     125.517 153.741 185.617  0.00  0.00    +0.000 Cl
BRANCH  12  19
ATOM     19  S   UNL     1     125.464 154.287 186.927  0.00  0.00    +0.000 S 
ATOM     20  O   UNL     1     125.101 153.912 187.410  0.00  0.00    +0.000 OA
ATOM     21  O   UNL     1     124.753 154.289 186.921  0.00  0.00    +0.000 OA
ATOM     22  N   UNL     1     126.063 154.071 187.211  0.00  0.00    +0.000 NA
ENDBRANCH  12  19
ENDBRANCH   1  13
TORSDOF 2
ENDMDL
MODEL 3
REMARK VINA RESULT:      -9.7     51.293     52.484
REMARK  Name = 
REMARK  2 active torsions:
REMARK  status: ('A' for Active; 'I' for Inactive)
REMARK    1  A    between atoms: C_1  and  C_7
REMARK    2  A    between atoms: S_3  and  C_4
REMARK                            x       y       z     vdW  Elec       q    Type
REMARK                         _______ _______ _______ _____ _____    ______ ____
ROOT
ATOM      1  C   UNL     1     157.925 120.229 165.220  0.00  0.00    +0.000 C 
ATOM      2  N   UNL     1     157.606 119.736 165.616  0.00  0.00    +0.000 NA
ATOM      3  C   UNL     1     157.630 119.132 165.279  0.00  0.00    +0.000 C 
ATOM      4  C   UNL     1     158.144 119.926 164.643  0.00  0.00    +0.000 A 
ATOM      5  C   UNL     1     157.965 119.245 164.672  0.00  0.00    +0.000 A 
ATOM      6  O   UNL     1     157.372 118.506 165.491  0.00  0.00    +0.000 OA
ATOM      7  O   UNL     1     158.102 120.915 165.198  0.00  0.00    +0.000 OA
ATOM      8  C   UNL     1     158.498 120.190 164.069  0.00  0.00    +0.000 A 
ATOM      9  C   UNL     1     158.130 118.802 164.132  0.00  0.00    +0.000 A 
ATOM     10  C   UNL     1     158.673 119.770 163.521  0.00  0.00    +0.000 A 
ATOM     11  C   UNL     1     158.487 119.061 163.551  0.00  0.00    +0.000 A 
ENDROOT
BRANCH   1  13
ATOM     12  C   UNL     1     157.049 121.535 166.235  0.00  0.00    +0.000 A 
ATOM     13  C   UNL     1     157.757 120.656 165.757  0.00  0.00    +0.000 A 
ATOM     14  C   UNL     1     157.218 121.104 165.694  0.00  0.00    +0.000 A 
ATOM     15  C   UNL     1     157.422 121.514 166.837  0.00  0.00    +0.000 A 
ATOM     16  C   UNL     1     158.131 120.633 166.357  0.00  0.00    +0.000 A 
ATOM     17  C   UNL     1     157.963 121.063 166.898  0.00  0.00    +0.000 A 
ATOM     18 CL   UNL     1     157.255 121.945 167.381  0.00  0.00    +0.000 Cl
BRANCH  12  19
ATOM     19  S   UNL     1     156.505 121.989 166.175  0.00  0.00    +0.000 S 
ATOM     20  O   UNL     1     155.813 122.131 166.252  0.00  0.00    +0.000 OA
ATOM     21  O   UNL     1     156.064 121.493 166.430  0.00  0.00    +0.000 OA
ATOM     22  N   UNL     1     156.610 122.632 165.929  0.00  0.00    +0.000 NA
ENDBRANCH  12  19
ENDBRANCH   1  13
TORSDOF 2
ENDMDL
MODEL 4
REMARK VINA RESULT:      -9.7     38.471     39.323
REMARK  Name = 
REMARK  2 active torsions:
REMARK  status: ('A' for Active; 'I' for Inactive)
REMARK    1  A    between atoms: C_1  and  C_7
REMARK    2  A    between atoms: S_3  and  C_4
REMARK                            x       y       z     vdW  Elec       q    Type
REMARK                         _______ _______ _______ _____ _____    ______ ____
ROOT
ATOM      1  C   UNL     1     100.364 135.109 165.012  0.00  0.00    +0.000 C 
ATOM      2  N   UNL     1     100.688 134.480 165.025  0.00  0.00    +0.000 NA
ATOM      3  C   UNL     1     100.899 134.326 164.384  0.00  0.00    +0.000 C 
ATOM      4  C   UNL     1     100.376 135.338 164.364  0.00  0.00    +0.000 A 
ATOM      5  C   UNL     1     100.707 134.859 163.968  0.00  0.00    +0.000 A 
ATOM      6  O   UNL     1     101.246 133.746 164.168  0.00  0.00    +0.000 OA
ATOM      7  O   UNL     1     100.032 135.587 165.416  0.00  0.00    +0.000 OA
ATOM      8  C   UNL     1     100.120 135.948 164.067  0.00  0.00    +0.000 A 
ATOM      9  C   UNL     1     100.795 134.966 163.264  0.00  0.00    +0.000 A 
ATOM     10  C   UNL     1     100.195 136.076 163.371  0.00  0.00    +0.000 A 
ATOM     11  C   UNL     1     100.539 135.577 162.958  0.00  0.00    +0.000 A 
ENDROOT
BRANCH   1  13
ATOM     12  C   UNL     1      99.613 134.573 166.640  0.00  0.00    +0.000 A 
ATOM     13  C   UNL     1     100.282 134.994 165.704  0.00  0.00    +0.000 A 
ATOM     14  C   UNL     1      99.695 134.690 165.942  0.00  0.00    +0.000 A 
ATOM     15  C   UNL     1     100.122 134.763 167.096  0.00  0.00    +0.000 A 
ATOM     16  C   UNL     1     100.793 135.185 166.156  0.00  0.00    +0.000 A 
ATOM     17  C   UNL     1     100.711 135.069 166.853  0.00  0.00    +0.000 A 
ATOM     18 CL   UNL     1     100.043 134.649 167.795  0.00  0.00    +0.000 Cl
BRANCH  12  19
ATOM     19  S   UNL     1      99.021 134.266 166.885  0.00  0.00    +0.000 S 
ATOM     20  O   UNL     1      98.674 133.682 167.096  0.00  0.00    +0.000 OA
ATOM     21  O   UNL     1      99.347 133.635 166.883  0.00  0.00    +0.000 OA
ATOM     22  N   UNL     1      98.452 134.648 167.009  0.00  0.00    +0.000 NA
ENDBRANCH  12  19
ENDBRANCH   1  13
TORSDOF 2
ENDMDL
MODEL 5
REMARK VINA RESULT:      -9.5     31.884     32.667
REMARK  Name = 
REMARK  2 active torsions:
REMARK  status: ('A' for Active; 'I' for Inactive)
REMARK    1  A    between atoms: C_1  and  C_7
REMARK    2  A    between atoms: S_3  and  C_4
REMARK                            x       y       z     vdW  Elec       q    Type
REMARK                         _______ _______ _______ _____ _____    ______ ____
ROOT
ATOM      1  C   UNL     1     126.506 123.719 182.013  0.00  0.00    +0.000 C 
ATOM      2  N   UNL     1     125.989 124.179 181.863  0.00  0.00    +0.000 NA
ATOM      3  C   UNL     1     125.476 124.091 182.320  0.00  0.00    +0.000 C 
ATOM      4  C   UNL     1     126.308 123.351 182.560  0.00  0.00    +0.000 A 
ATOM      5  C   UNL     1     125.671 123.576 182.756  0.00  0.00    +0.000 A 
ATOM      6  O   UNL     1     124.862 124.445 182.356  0.00  0.00    +0.000 OA
ATOM      7  O   UNL     1     127.148 123.497 181.810  0.00  0.00    +0.000 OA
ATOM      8  C   UNL     1     126.639 122.817 182.922  0.00  0.00    +0.000 A 
ATOM      9  C   UNL     1     125.337 123.280 183.319  0.00  0.00    +0.000 A 
ATOM     10  C   UNL     1     126.328 122.508 183.483  0.00  0.00    +0.000 A 
ATOM     11  C   UNL     1     125.664 122.742 183.688  0.00  0.00    +0.000 A 
ENDROOT
BRANCH   1  13
ATOM     12  C   UNL     1     127.599 124.847 180.997  0.00  0.00    +0.000 A 
ATOM     13  C   UNL     1     126.825 124.017 181.458  0.00  0.00    +0.000 A 
ATOM     14  C   UNL     1     127.277 124.546 181.556  0.00  0.00    +0.000 A 
ATOM     15  C   UNL     1     127.465 124.614 180.340  0.00  0.00    +0.000 A 
ATOM     16  C   UNL     1     126.689 123.782 180.804  0.00  0.00    +0.000 A 
ATOM     17  C   UNL     1     127.010 124.081 180.245  0.00  0.00    +0.000 A 
ATOM     18 CL   UNL     1     127.786 124.913 179.777  0.00  0.00    +0.000 Cl
BRANCH  12  19
ATOM     19  S   UNL     1     128.057 125.382 181.091  0.00  0.00    +0.000 S 
ATOM     20  O   UNL     1     128.722 125.610 181.194  0.00  0.00    +0.000 OA
ATOM     21  O   UNL     1     128.592 124.917 181.134  0.00  0.00    +0.000 OA
ATOM     22  N   UNL     1     127.830 126.041 181.102  0.00  0.00    +0.000 NA
ENDBRANCH  12  19
ENDBRANCH   1  13
TORSDOF 2
ENDMDL
MODEL 6
REMARK VINA RESULT:      -9.3     38.299     39.143
REMARK  Name = 
REMARK  2 active torsions:
REMARK  status: ('A' for Active; 'I' for Inactive)
REMARK    1  A    between atoms: C_1  and  C_7
REMARK    2  A    between atoms: S_3  and  C_4
REMARK                            x       y       z     vdW  Elec       q    Type
REMARK                         _______ _______ _______ _____ _____    ______ ____
ROOT
ATOM      1  C   UNL     1      99.603 134.308 166.998  0.00  0.00    +0.000 C 
ATOM      2  N   UNL     1     100.094 134.770 167.214  0.00  0.00    +0.000 NA
ATOM      3  C   UNL     1     100.203 134.677 167.891  0.00  0.00    +0.000 C 
ATOM      4  C   UNL     1      99.413 133.933 167.542  0.00  0.00    +0.000 A 
ATOM      5  C   UNL     1      99.780 134.156 168.100  0.00  0.00    +0.000 A 
ATOM      6  O   UNL     1     100.651 135.030 168.312  0.00  0.00    +0.000 OA
ATOM      7  O   UNL     1      99.237 134.089 166.431  0.00  0.00    +0.000 OA
ATOM      8  C   UNL     1      98.932 133.395 167.607  0.00  0.00    +0.000 A 
ATOM      9  C   UNL     1      99.684 133.852 168.743  0.00  0.00    +0.000 A 
ATOM     10  C   UNL     1      98.820 133.078 168.235  0.00  0.00    +0.000 A 
ATOM     11  C   UNL     1      99.202 133.309 168.816  0.00  0.00    +0.000 A 
ENDROOT
BRANCH   1  13
ATOM     12  C   UNL     1     100.219 134.612 165.257  0.00  0.00    +0.000 A 
ATOM     13  C   UNL     1      99.705 134.614 166.369  0.00  0.00    +0.000 A 
ATOM     14  C   UNL     1     100.117 134.304 165.891  0.00  0.00    +0.000 A 
ATOM     15  C   UNL     1      99.908 135.231 165.106  0.00  0.00    +0.000 A 
ATOM     16  C   UNL     1      99.393 135.232 166.222  0.00  0.00    +0.000 A 
ATOM     17  C   UNL     1      99.495 135.540 165.590  0.00  0.00    +0.000 A 
ATOM     18 CL   UNL     1     100.009 135.542 164.473  0.00  0.00    +0.000 Cl
BRANCH  12  19
ATOM     19  S   UNL     1     100.635 134.302 164.771  0.00  0.00    +0.000 S 
ATOM     20  O   UNL     1     100.709 133.858 164.220  0.00  0.00    +0.000 OA
ATOM     21  O   UNL     1     100.072 133.953 164.512  0.00  0.00    +0.000 OA
ATOM     22  N   UNL     1     101.316 134.443 164.748  0.00  0.00    +0.000 NA
ENDBRANCH  12  19
ENDBRANCH   1  13
TORSDOF 2
ENDMDL
MODEL 7
REMARK VINA RESULT:      -9.0     42.185     43.237
REMARK  Name = 
REMARK  2 active torsions:
REMARK  status: ('A' for Active; 'I' for Inactive)
REMARK    1  A    between atoms: C_1  and  C_7
REMARK    2  A    between atoms: S_3  and  C_4
REMARK                            x       y       z     vdW  Elec       q    Type
REMARK                         _______ _______ _______ _____ _____    ______ ____
ROOT
ATOM      1  C   UNL     1     161.315 132.976 182.598  0.00  0.00    +0.000 C 
ATOM      2  N   UNL     1     160.815 132.884 183.090  0.00  0.00    +0.000 NA
ATOM      3  C   UNL     1     160.654 133.501 183.360  0.00  0.00    +0.000 C 
ATOM      4  C   UNL     1     161.459 133.648 182.568  0.00  0.00    +0.000 A 
ATOM      5  C   UNL     1     161.054 133.980 183.037  0.00  0.00    +0.000 A 
ATOM      6  O   UNL     1     160.179 133.643 183.867  0.00  0.00    +0.000 OA
ATOM      7  O   UNL     1     161.720 132.635 182.127  0.00  0.00    +0.000 OA
ATOM      8  C   UNL     1     161.927 134.018 182.156  0.00  0.00    +0.000 A 
ATOM      9  C   UNL     1     161.097 134.692 183.117  0.00  0.00    +0.000 A 
ATOM     10  C   UNL     1     161.988 134.725 182.217  0.00  0.00    +0.000 A 
ATOM     11  C   UNL     1     161.566 135.072 182.706  0.00  0.00    +0.000 A 
ENDROOT
BRANCH   1  13
ATOM     12  C   UNL     1     160.796 131.294 181.962  0.00  0.00    +0.000 A 
ATOM     13  C   UNL     1     161.264 132.275 182.528  0.00  0.00    +0.000 A 
ATOM     14  C   UNL     1     160.847 132.001 182.033  0.00  0.00    +0.000 A 
ATOM     15  C   UNL     1     161.165 130.865 182.390  0.00  0.00    +0.000 A 
ATOM     16  C   UNL     1     161.634 131.850 182.957  0.00  0.00    +0.000 A 
ATOM     17  C   UNL     1     161.583 131.144 182.887  0.00  0.00    +0.000 A 
ATOM     18 CL   UNL     1     161.116 130.157 182.322  0.00  0.00    +0.000 Cl
BRANCH  12  19
ATOM     19  S   UNL     1     160.376 131.013 181.463  0.00  0.00    +0.000 S 
ATOM     20  O   UNL     1     160.289 130.763 180.803  0.00  0.00    +0.000 OA
ATOM     21  O   UNL     1     160.923 130.999 181.010  0.00  0.00    +0.000 OA
ATOM     22  N   UNL     1     159.705 130.886 181.599  0.00  0.00    +0.000 NA
ENDBRANCH  12  19
ENDBRANCH   1  13
TORSDOF 2
ENDMDL
MODEL 8
REMARK VINA RESULT:      -9.0     98.061     98.706
REMARK  Name = 
REMARK  2 active torsions:
REMARK  status: ('A' for Active; 'I' for Inactive)
REMARK    1  A    between atoms: C_1  and  C_7
REMARK    2  A    between atoms: S_3  and  C_4
REMARK                            x       y       z     vdW  Elec       q    Type
REMARK                         _______ _______ _______ _____ _____    ______ ____
ROOT
ATOM      1  C   UNL     1     133.038 148.910  88.084  0.00  0.00    +0.000 C 
ATOM      2  N   UNL     1     132.771 148.702  87.463  0.00  0.00    +0.000 NA
ATOM      3  C   UNL     1     132.506 149.256  87.140  0.00  0.00    +0.000 C 
ATOM      4  C   UNL     1     132.938 149.588  88.141  0.00  0.00    +0.000 A 
ATOM      5  C   UNL     1     132.608 149.810  87.560  0.00  0.00    +0.000 A 
ATOM      6  O   UNL     1     132.189 149.278  86.507  0.00  0.00    +0.000 OA
ATOM      7  O   UNL     1     133.370 148.680  88.667  0.00  0.00    +0.000 OA
ATOM      8  C   UNL     1     133.110 150.054  88.668  0.00  0.00    +0.000 A 
ATOM      9  C   UNL     1     132.437 150.502  87.480  0.00  0.00    +0.000 A 
ATOM     10  C   UNL     1     132.951 150.746  88.611  0.00  0.00    +0.000 A 
ATOM     11  C   UNL     1     132.608 150.977  88.006  0.00  0.00    +0.000 A 
ENDROOT
BRANCH   1  13
ATOM     12  C   UNL     1     132.937 147.107  88.575  0.00  0.00    +0.000 A 
ATOM     13  C   UNL     1     133.202 148.226  88.153  0.00  0.00    +0.000 A 
ATOM     14  C   UNL     1     132.772 147.796  88.505  0.00  0.00    +0.000 A 
ATOM     15  C   UNL     1     133.534 146.852  88.289  0.00  0.00    +0.000 A 
ATOM     16  C   UNL     1     133.799 147.976  87.866  0.00  0.00    +0.000 A 
ATOM     17  C   UNL     1     133.964 147.287  87.935  0.00  0.00    +0.000 A 
ATOM     18 CL   UNL     1     133.702 146.163  88.356  0.00  0.00    +0.000 Cl
BRANCH  12  19
ATOM     19  S   UNL     1     132.505 146.669  88.930  0.00  0.00    +0.000 S 
ATOM     20  O   UNL     1     132.315 146.355  89.539  0.00  0.00    +0.000 OA
ATOM     21  O   UNL     1     132.867 146.797  89.528  0.00  0.00    +0.000 OA
ATOM     22  N   UNL     1     131.985 146.343  88.601  0.00  0.00    +0.000 NA
ENDBRANCH  12  19
ENDBRANCH   1  13
TORSDOF 2
ENDMDL
MODEL 9
REMARK VINA RESULT:      -8.9     85.860     86.422
REMARK  Name = 
REMARK  2 active torsions:
REMARK  status: ('A' for Active; 'I' for Inactive)
REMARK    1  A    between atoms: C_1  and  C_7
REMARK    2  A    between atoms: S_3  and  C_4
REMARK                            x       y       z     vdW  Elec       q    Type
REMARK                         _______ _______ _______ _____ _____    ______ ____
ROOT
ATOM      1  C   UNL     1     116.175 112.806 112.421  0.00  0.00    +0.000 C 
ATOM      2  N   UNL     1     116.407 112.646 113.070  0.00  0.00    +0.000 NA
ATOM      3  C   UNL     1     115.867 112.447 113.455  0.00  0.00    +0.000 C 
ATOM      4  C   UNL     1     115.495 112.705 112.410  0.00  0.00    +0.000 A 
ATOM      5  C   UNL     1     115.296 112.483 113.047  0.00  0.00    +0.000 A 
ATOM      6  O   UNL     1     115.870 112.243 114.134  0.00  0.00    +0.000 OA
ATOM      7  O   UNL     1     116.382 113.031 111.781  0.00  0.00    +0.000 OA
ATOM      8  C   UNL     1     115.008 112.790 111.880  0.00  0.00    +0.000 A 
ATOM      9  C   UNL     1     114.607 112.336 113.183  0.00  0.00    +0.000 A 
ATOM     10  C   UNL     1     114.318 112.651 111.991  0.00  0.00    +0.000 A 
ATOM     11  C   UNL     1     114.111 112.419 112.655  0.00  0.00    +0.000 A 
ENDROOT
BRANCH   1  13
ATOM     12  C   UNL     1     117.911 112.686 111.733  0.00  0.00    +0.000 A 
ATOM     13  C   UNL     1     116.856 112.948 112.298  0.00  0.00    +0.000 A 
ATOM     14  C   UNL     1     117.225 112.543 111.857  0.00  0.00    +0.000 A 
ATOM     15  C   UNL     1     118.225 113.236 112.052  0.00  0.00    +0.000 A 
ATOM     16  C   UNL     1     117.166 113.498 112.618  0.00  0.00    +0.000 A 
ATOM     17  C   UNL     1     117.851 113.641 112.494  0.00  0.00    +0.000 A 
ATOM     18 CL   UNL     1     118.912 113.382 111.930  0.00  0.00    +0.000 Cl
BRANCH  12  19
ATOM     19  S   UNL     1     118.287 112.278 111.288  0.00  0.00    +0.000 S 
ATOM     20  O   UNL     1     118.732 111.734 111.182  0.00  0.00    +0.000 OA
ATOM     21  O   UNL     1     118.525 111.897 111.839  0.00  0.00    +0.000 OA
ATOM     22  N   UNL     1     118.273 112.399 110.602  0.00  0.00    +0.000 NA
ENDBRANCH  12  19
ENDBRANCH   1  13
TORSDOF 2
ENDMDL
MODEL 10
REMARK VINA RESULT:      -8.8     39.609     40.253
REMARK  Name = 
REMARK  2 active torsions:
REMARK  status: ('A' for Active; 'I' for Inactive)
REMARK    1  A    between atoms: C_1  and  C_7
REMARK    2  A    between atoms: S_3  and  C_4
REMARK                            x       y       z     vdW  Elec       q    Type
REMARK                         _______ _______ _______ _____ _____    ______ ____
ROOT
ATOM      1  C   UNL     1      99.639 133.813 165.209  0.00  0.00    +0.000 C 
ATOM      2  N   UNL     1      99.299 133.436 164.715  0.00  0.00    +0.000 NA
ATOM      3  C   UNL     1      98.813 133.052 165.025  0.00  0.00    +0.000 C 
ATOM      4  C   UNL     1      99.361 133.659 165.819  0.00  0.00    +0.000 A 
ATOM      5  C   UNL     1      98.848 133.188 165.713  0.00  0.00    +0.000 A 
ATOM      6  O   UNL     1      98.358 132.601 164.722  0.00  0.00    +0.000 OA
ATOM      7  O   UNL     1     100.156 134.287 165.308  0.00  0.00    +0.000 OA
ATOM      8  C   UNL     1      99.512 133.896 166.487  0.00  0.00    +0.000 A 
ATOM      9  C   UNL     1      98.467 132.934 166.266  0.00  0.00    +0.000 A 
ATOM     10  C   UNL     1      99.148 133.659 167.051  0.00  0.00    +0.000 A 
ATOM     11  C   UNL     1      98.614 133.168 166.941  0.00  0.00    +0.000 A 
ENDROOT
BRANCH   1  13
ATOM     12  C   UNL     1     100.255 134.946 163.854  0.00  0.00    +0.000 A 
ATOM     13  C   UNL     1     100.008 134.056 164.658  0.00  0.00    +0.000 A 
ATOM     14  C   UNL     1      99.883 134.701 164.409  0.00  0.00    +0.000 A 
ATOM     15  C   UNL     1     100.751 134.542 163.550  0.00  0.00    +0.000 A 
ATOM     16  C   UNL     1     100.502 133.648 164.357  0.00  0.00    +0.000 A 
ATOM     17  C   UNL     1     100.874 133.893 163.802  0.00  0.00    +0.000 A 
ATOM     18 CL   UNL     1     101.125 134.784 162.994  0.00  0.00    +0.000 Cl
BRANCH  12  19
ATOM     19  S   UNL     1     100.132 135.599 163.599  0.00  0.00    +0.000 S 
ATOM     20  O   UNL     1      99.814 136.023 163.125  0.00  0.00    +0.000 OA
ATOM     21  O   UNL     1      99.713 135.323 163.095  0.00  0.00    +0.000 OA
ATOM     22  N   UNL     1     100.424 136.155 163.900  0.00  0.00    +0.000 NA
ENDBRANCH  12  19
ENDBRANCH   1  13
TORSDOF 2
ENDMDL
MODEL 11
REMARK VINA RESULT:      -8.8     38.186     38.933
REMARK  Name = 
REMARK  2 active torsions:
REMARK  status: ('A' for Active; 'I' for Inactive)
REMARK    1  A    between atoms: C_1  and  C_7
REMARK    2  A    between atoms: S_3  and  C_4
REMARK                            x       y       z     vdW  Elec       q    Type
REMARK                         _______ _______ _______ _____ _____    ______ ____
ROOT
ATOM      1  C   UNL     1     104.212 143.960 156.682  0.00  0.00    +0.000 C 
ATOM      2  N   UNL     1     104.296 143.431 156.219  0.00  0.00    +0.000 NA
ATOM      3  C   UNL     1     104.332 142.835 156.570  0.00  0.00    +0.000 C 
ATOM      4  C   UNL     1     104.196 143.688 157.313  0.00  0.00    +0.000 A 
ATOM      5  C   UNL     1     104.270 142.990 157.252  0.00  0.00    +0.000 A 
ATOM      6  O   UNL     1     104.415 142.182 156.307  0.00  0.00    +0.000 OA
ATOM      7  O   UNL     1     104.138 144.664 156.736  0.00  0.00    +0.000 OA
ATOM      8  C   UNL     1     104.121 143.995 157.965  0.00  0.00    +0.000 A 
ATOM      9  C   UNL     1     104.272 142.572 157.835  0.00  0.00    +0.000 A 
ATOM     10  C   UNL     1     104.120 143.601 158.558  0.00  0.00    +0.000 A 
ATOM     11  C   UNL     1     104.197 142.874 158.495  0.00  0.00    +0.000 A 
ENDROOT
BRANCH   1  13
ATOM     12  C   UNL     1     103.602 144.945 155.213  0.00  0.00    +0.000 A 
ATOM     13  C   UNL     1     104.211 144.363 156.101  0.00  0.00    +0.000 A 
ATOM     14  C   UNL     1     103.602 144.540 155.797  0.00  0.00    +0.000 A 
ATOM     15  C   UNL     1     104.213 145.172 154.935  0.00  0.00    +0.000 A 
ATOM     16  C   UNL     1     104.824 144.588 155.827  0.00  0.00    +0.000 A 
ATOM     17  C   UNL     1     104.824 144.993 155.243  0.00  0.00    +0.000 A 
ATOM     18 CL   UNL     1     104.216 145.579 154.349  0.00  0.00    +0.000 Cl
BRANCH  12  19
ATOM     19  S   UNL     1     102.988 145.126 154.902  0.00  0.00    +0.000 S 
ATOM     20  O   UNL     1     102.495 145.010 154.403  0.00  0.00    +0.000 OA
ATOM     21  O   UNL     1     103.060 144.587 154.445  0.00  0.00    +0.000 OA
ATOM     22  N   UNL     1     102.623 145.672 155.135  0.00  0.00    +0.000 NA
ENDBRANCH  12  19
ENDBRANCH   1  13
TORSDOF 2
ENDMDL
MODEL 12
REMARK VINA RESULT:      -8.8     32.990     34.152
REMARK  Name = 
REMARK  2 active torsions:
REMARK  status: ('A' for Active; 'I' for Inactive)
REMARK    1  A    between atoms: C_1  and  C_7
REMARK    2  A    between atoms: S_3  and  C_4
REMARK                            x       y       z     vdW  Elec       q    Type
REMARK                         _______ _______ _______ _____ _____    ______ ____
ROOT
ATOM      1  C   UNL     1     148.624 133.246 175.606  0.00  0.00    +0.000 C 
ATOM      2  N   UNL     1     148.762 133.907 175.819  0.00  0.00    +0.000 NA
ATOM      3  C   UNL     1     149.112 134.232 175.318  0.00  0.00    +0.000 C 
ATOM      4  C   UNL     1     148.890 133.168 174.976  0.00  0.00    +0.000 A 
ATOM      5  C   UNL     1     149.194 133.776 174.791  0.00  0.00    +0.000 A 
ATOM      6  O   UNL     1     149.351 134.900 175.319  0.00  0.00    +0.000 OA
ATOM      7  O   UNL     1     148.316 132.637 175.800  0.00  0.00    +0.000 OA
ATOM      8  C   UNL     1     148.895 132.600 174.527  0.00  0.00    +0.000 A 
ATOM      9  C   UNL     1     149.515 133.842 174.152  0.00  0.00    +0.000 A 
ATOM     10  C   UNL     1     149.208 132.642 173.888  0.00  0.00    +0.000 A 
ATOM     11  C   UNL     1     149.524 133.274 173.694  0.00  0.00    +0.000 A 
ENDROOT
BRANCH   1  13
ATOM     12  C   UNL     1     147.304 133.248 176.932  0.00  0.00    +0.000 A 
ATOM     13  C   UNL     1     148.311 133.192 176.237  0.00  0.00    +0.000 A 
ATOM     14  C   UNL     1     147.620 133.303 176.296  0.00  0.00    +0.000 A 
ATOM     15  C   UNL     1     147.685 133.081 177.506  0.00  0.00    +0.000 A 
ATOM     16  C   UNL     1     148.695 133.025 176.808  0.00  0.00    +0.000 A 
ATOM     17  C   UNL     1     148.380 132.970 177.443  0.00  0.00    +0.000 A 
ATOM     18 CL   UNL     1     147.372 133.025 178.145  0.00  0.00    +0.000 Cl
BRANCH  12  19
ATOM     19  S   UNL     1     146.605 133.360 176.996  0.00  0.00    +0.000 S 
ATOM     20  O   UNL     1     145.941 133.106 177.004  0.00  0.00    +0.000 OA
ATOM     21  O   UNL     1     146.485 132.666 176.900  0.00  0.00    +0.000 OA
ATOM     22  N   UNL     1     146.360 134.002 177.110  0.00  0.00    +0.000 NA
ENDBRANCH  12  19
ENDBRANCH   1  13
TORSDOF 2
ENDMDL
MODEL 13
REMARK VINA RESULT:      -8.7     20.897     21.777
REMARK  Name = 
REMARK  2 active torsions:
REMARK  status: ('A' for Active; 'I' for Inactive)
REMARK    1  A    between atoms: C_1  and  C_7
REMARK    2  A    between atoms: S_3  and  C_4
REMARK                            x       y       z     vdW  Elec       q    Type
REMARK                         _______ _______ _______ _____ _____    ______ ____
ROOT
ATOM      1  C   UNL     1     125.700 136.501 177.597  0.00  0.00    +0.000 C 
ATOM      2  N   UNL     1     126.108 137.021 177.848  0.00  0.00    +0.000 NA
ATOM      3  C   UNL     1     125.918 137.156 178.500  0.00  0.00    +0.000 C 
ATOM      4  C   UNL     1     125.260 136.319 178.094  0.00  0.00    +0.000 A 
ATOM      5  C   UNL     1     125.389 136.721 178.657  0.00  0.00    +0.000 A 
ATOM      6  O   UNL     1     126.192 137.639 178.941  0.00  0.00    +0.000 OA
ATOM      7  O   UNL     1     125.575 136.099 177.025  0.00  0.00    +0.000 OA
ATOM      8  C   UNL     1     124.736 135.819 178.109  0.00  0.00    +0.000 A 
ATOM      9  C   UNL     1     125.003 136.641 179.257  0.00  0.00    +0.000 A 
ATOM     10  C   UNL     1     124.340 135.722 178.693  0.00  0.00    +0.000 A 
ATOM     11  C   UNL     1     124.474 136.140 179.280  0.00  0.00    +0.000 A 
ENDROOT
BRANCH   1  13
ATOM     12  C   UNL     1     126.254 137.112 175.917  0.00  0.00    +0.000 A 
ATOM     13  C   UNL     1     126.085 136.587 177.011  0.00  0.00    +0.000 A 
ATOM     14  C   UNL     1     125.865 137.025 176.507  0.00  0.00    +0.000 A 
ATOM     15  C   UNL     1     126.863 136.758 175.836  0.00  0.00    +0.000 A 
ATOM     16  C   UNL     1     126.693 136.232 176.934  0.00  0.00    +0.000 A 
ATOM     17  C   UNL     1     127.082 136.319 176.345  0.00  0.00    +0.000 A 
ATOM     18 CL   UNL     1     127.255 136.843 175.246  0.00  0.00    +0.000 Cl
BRANCH  12  19
ATOM     19  S   UNL     1     126.035 137.554 175.405  0.00  0.00    +0.000 S 
ATOM     20  O   UNL     1     125.658 137.669 174.813  0.00  0.00    +0.000 OA
ATOM     21  O   UNL     1     125.663 137.025 175.109  0.00  0.00    +0.000 OA
ATOM     22  N   UNL     1     126.241 138.219 175.403  0.00  0.00    +0.000 NA
ENDBRANCH  12  19
ENDBRANCH   1  13
TORSDOF 2
ENDMDL
MODEL 14
REMARK VINA RESULT:      -8.6     53.894     54.836
REMARK  Name = 
REMARK  2 active torsions:
REMARK  status: ('A' for Active; 'I' for Inactive)
REMARK    1  A    between atoms: C_1  and  C_7
REMARK    2  A    between atoms: S_3  and  C_4
REMARK                            x       y       z     vdW  Elec       q    Type
REMARK                         _______ _______ _______ _____ _____    ______ ____
ROOT
ATOM      1  C   UNL     1     147.228 107.170 194.696  0.00  0.00    +0.000 C 
ATOM      2  N   UNL     1     147.637 106.642 194.929  0.00  0.00    +0.000 NA
ATOM      3  C   UNL     1     147.592 106.615 195.620  0.00  0.00    +0.000 C 
ATOM      4  C   UNL     1     146.933 107.465 195.243  0.00  0.00    +0.000 A 
ATOM      5  C   UNL     1     147.154 107.126 195.820  0.00  0.00    +0.000 A 
ATOM      6  O   UNL     1     147.919 106.164 196.058  0.00  0.00    +0.000 OA
ATOM      7  O   UNL     1     147.010 107.507 194.112  0.00  0.00    +0.000 OA
ATOM      8  C   UNL     1     146.473 108.022 195.296  0.00  0.00    +0.000 A 
ATOM      9  C   UNL     1     146.927 107.327 196.470  0.00  0.00    +0.000 A 
ATOM     10  C   UNL     1     146.233 108.239 195.930  0.00  0.00    +0.000 A 
ATOM     11  C   UNL     1     146.463 107.887 196.531  0.00  0.00    +0.000 A 
ENDROOT
BRANCH   1  13
ATOM     12  C   UNL     1     147.303 106.317 193.033  0.00  0.00    +0.000 A 
ATOM     13  C   UNL     1     147.458 106.964 194.061  0.00  0.00    +0.000 A 
ATOM     14  C   UNL     1     147.071 106.525 193.673  0.00  0.00    +0.000 A 
ATOM     15  C   UNL     1     147.924 106.552 192.785  0.00  0.00    +0.000 A 
ATOM     16  C   UNL     1     148.079 107.201 193.817  0.00  0.00    +0.000 A 
ATOM     17  C   UNL     1     148.312 106.994 193.178  0.00  0.00    +0.000 A 
ATOM     18 CL   UNL     1     148.160 106.346 192.144  0.00  0.00    +0.000 Cl
BRANCH  12  19
ATOM     19  S   UNL     1     146.914 105.873 192.637  0.00  0.00    +0.000 S 
ATOM     20  O   UNL     1     146.419 105.769 192.137  0.00  0.00    +0.000 OA
ATOM     21  O   UNL     1     146.598 106.428 192.325  0.00  0.00    +0.000 OA
ATOM     22  N   UNL     1     146.989 105.184 192.704  0.00  0.00    +0.000 NA
ENDBRANCH  12  19
ENDBRANCH   1  13
TORSDOF 2
ENDMDL
MODEL 15
REMARK VINA RESULT:      -8.5     31.104     32.173
REMARK  Name = 
REMARK  2 active torsions:
REMARK  status: ('A' for Active; 'I' for Inactive)
REMARK    1  A    between atoms: C_1  and  C_7
REMARK    2  A    between atoms: S_3  and  C_4
REMARK                            x       y       z     vdW  Elec       q    Type
REMARK                         _______ _______ _______ _____ _____    ______ ____
ROOT
ATOM      1  C   UNL     1     126.059 124.181 183.421  0.00  0.00    +0.000 C 
ATOM      2  N   UNL     1     125.621 123.645 183.567  0.00  0.00    +0.000 NA
ATOM      3  C   UNL     1     125.950 123.049 183.440  0.00  0.00    +0.000 C 
ATOM      4  C   UNL     1     126.655 123.913 183.206  0.00  0.00    +0.000 A 
ATOM      5  C   UNL     1     126.596 123.212 183.215  0.00  0.00    +0.000 A 
ATOM      6  O   UNL     1     125.700 122.390 183.517  0.00  0.00    +0.000 OA
ATOM      7  O   UNL     1     126.113 124.888 183.414  0.00  0.00    +0.000 OA
ATOM      8  C   UNL     1     127.272 124.228 182.994  0.00  0.00    +0.000 A 
ATOM      9  C   UNL     1     127.146 122.797 183.014  0.00  0.00    +0.000 A 
ATOM     10  C   UNL     1     127.831 123.837 182.790  0.00  0.00    +0.000 A 
ATOM     11  C   UNL     1     127.770 123.107 182.799  0.00  0.00    +0.000 A 
ENDROOT
BRANCH   1  13
ATOM     12  C   UNL     1     124.517 125.237 183.340  0.00  0.00    +0.000 A 
ATOM     13  C   UNL     1     125.512 124.580 183.621  0.00  0.00    +0.000 A 
ATOM     14  C   UNL     1     125.069 124.835 183.139  0.00  0.00    +0.000 A 
ATOM     15  C   UNL     1     124.412 125.382 184.026  0.00  0.00    +0.000 A 
ATOM     16  C   UNL     1     125.411 124.723 184.307  0.00  0.00    +0.000 A 
ATOM     17  C   UNL     1     124.860 125.124 184.509  0.00  0.00    +0.000 A 
ATOM     18 CL   UNL     1     123.861 125.784 184.232  0.00  0.00    +0.000 Cl
BRANCH  12  19
ATOM     19  S   UNL     1     124.066 125.496 182.856  0.00  0.00    +0.000 S 
ATOM     20  O   UNL     1     123.881 126.013 182.403  0.00  0.00    +0.000 OA
ATOM     21  O   UNL     1     124.472 126.076 182.789  0.00  0.00    +0.000 OA
ATOM     22  N   UNL     1     123.500 125.134 182.672  0.00  0.00    +0.000 NA
ENDBRANCH  12  19
ENDBRANCH   1  13
TORSDOF 2
ENDMDL
MODEL 16
REMARK VINA RESULT:      -8.5     99.244    100.111
REMARK  Name = 
REMARK  2 active torsions:
REMARK  status: ('A' for Active; 'I' for Inactive)
REMARK    1  A    between atoms: C_1  and  C_7
REMARK    2  A    between atoms: S_3  and  C_4
REMARK                            x       y       z     vdW  Elec       q    Type
REMARK                         _______ _______ _______ _____ _____    ______ ____
ROOT
ATOM      1  C   UNL     1     132.803 149.646  86.377  0.00  0.00    +0.000 C 
ATOM      2  N   UNL     1     132.225 149.252  86.275  0.00  0.00    +0.000 NA
ATOM      3  C   UNL     1     131.976 149.384  85.642  0.00  0.00    +0.000 C 
ATOM      4  C   UNL     1     132.908 150.018  85.808  0.00  0.00    +0.000 A 
ATOM      5  C   UNL     1     132.400 149.861  85.347  0.00  0.00    +0.000 A 
ATOM      6  O   UNL     1     131.404 149.100  85.333  0.00  0.00    +0.000 OA
ATOM      7  O   UNL     1     133.313 149.799  86.846  0.00  0.00    +0.000 OA
ATOM      8  C   UNL     1     133.422 150.500  85.640  0.00  0.00    +0.000 A 
ATOM      9  C   UNL     1     132.381 150.176  84.703  0.00  0.00    +0.000 A 
ATOM     10  C   UNL     1     133.425 150.826  85.007  0.00  0.00    +0.000 A 
ATOM     11  C   UNL     1     132.896 150.663  84.526  0.00  0.00    +0.000 A 
ENDROOT
BRANCH   1  13
ATOM     12  C   UNL     1     133.203 148.430  87.741  0.00  0.00    +0.000 A 
ATOM     13  C   UNL     1     132.812 149.330  87.008  0.00  0.00    +0.000 A 
ATOM     14  C   UNL     1     133.195 148.748  87.105  0.00  0.00    +0.000 A 
ATOM     15  C   UNL     1     132.826 148.696  88.279  0.00  0.00    +0.000 A 
ATOM     16  C   UNL     1     132.434 149.599  87.543  0.00  0.00    +0.000 A 
ATOM     17  C   UNL     1     132.442 149.281  88.179  0.00  0.00    +0.000 A 
ATOM     18 CL   UNL     1     132.832 148.380  88.918  0.00  0.00    +0.000 Cl
BRANCH  12  19
ATOM     19  S   UNL     1     133.589 147.841  87.843  0.00  0.00    +0.000 S 
ATOM     20  O   UNL     1     134.200 147.534  88.038  0.00  0.00    +0.000 OA
ATOM     21  O   UNL     1     134.140 148.239  88.054  0.00  0.00    +0.000 OA
ATOM     22  N   UNL     1     133.315 147.214  87.715  0.00  0.00    +0.000 NA
ENDBRANCH  12  19
ENDBRANCH   1  13
TORSDOF 2
ENDMDL
MODEL 17
REMARK VINA RESULT:      -8.5     97.846     98.662
REMARK  Name = 
REMARK  2 active torsions:
REMARK  status: ('A' for Active; 'I' for Inactive)
REMARK    1  A    between atoms: C_1  and  C_7
REMARK    2  A    between atoms: S_3  and  C_4
REMARK                            x       y       z     vdW  Elec       q    Type
REMARK                         _______ _______ _______ _____ _____    ______ ____
ROOT
ATOM      1  C   UNL     1     132.685 147.381  88.386  0.00  0.00    +0.000 C 
ATOM      2  N   UNL     1     133.143 147.713  88.812  0.00  0.00    +0.000 NA
ATOM      3  C   UNL     1     133.214 147.341  89.392  0.00  0.00    +0.000 C 
ATOM      4  C   UNL     1     132.478 146.808  88.704  0.00  0.00    +0.000 A 
ATOM      5  C   UNL     1     132.802 146.776  89.329  0.00  0.00    +0.000 A 
ATOM      6  O   UNL     1     133.621 147.487  89.954  0.00  0.00    +0.000 OA
ATOM      7  O   UNL     1     132.363 147.420  87.755  0.00  0.00    +0.000 OA
ATOM      8  C   UNL     1     132.018 146.287  88.500  0.00  0.00    +0.000 A 
ATOM      9  C   UNL     1     132.680 146.227  89.775  0.00  0.00    +0.000 A 
ATOM     10  C   UNL     1     131.881 145.732  88.925  0.00  0.00    +0.000 A 
ATOM     11  C   UNL     1     132.217 145.699  89.576  0.00  0.00    +0.000 A 
ENDROOT
BRANCH   1  13
ATOM     12  C   UNL     1     132.482 149.008  87.483  0.00  0.00    +0.000 A 
ATOM     13  C   UNL     1     132.812 147.926  87.955  0.00  0.00    +0.000 A 
ATOM     14  C   UNL     1     132.354 148.458  87.918  0.00  0.00    +0.000 A 
ATOM     15  C   UNL     1     133.070 149.021  87.088  0.00  0.00    +0.000 A 
ATOM     16  C   UNL     1     133.401 147.936  87.562  0.00  0.00    +0.000 A 
ATOM     17  C   UNL     1     133.529 148.485  87.128  0.00  0.00    +0.000 A 
ATOM     18 CL   UNL     1     133.202 149.570  86.652  0.00  0.00    +0.000 Cl
BRANCH  12  19
ATOM     19  S   UNL     1     132.021 149.547  87.443  0.00  0.00    +0.000 S 
ATOM     20  O   UNL     1     131.822 150.201  87.638  0.00  0.00    +0.000 OA
ATOM     21  O   UNL     1     132.416 149.920  87.901  0.00  0.00    +0.000 OA
ATOM     22  N   UNL     1     131.458 149.499  87.035  0.00  0.00    +0.000 NA
ENDBRANCH  12  19
ENDBRANCH   1  13
TORSDOF 2
ENDMDL
MODEL 18
REMARK VINA RESULT:      -8.3     39.674     40.440
REMARK  Name = 
REMARK  2 active torsions:
REMARK  status: ('A' for Active; 'I' for Inactive)
REMARK    1  A    between atoms: C_1  and  C_7
REMARK    2  A    between atoms: S_3  and  C_4
REMARK                            x       y       z     vdW  Elec       q    Type
REMARK                         _______ _______ _______ _____ _____    ______ ____
ROOT
ATOM      1  C   UNL     1     103.258 144.783 154.828  0.00  0.00    +0.000 C 
ATOM      2  N   UNL     1     103.844 145.152 154.976  0.00  0.00    +0.000 NA
ATOM      3  C   UNL     1     104.211 144.804 155.449  0.00  0.00    +0.000 C 
ATOM      4  C   UNL     1     103.268 144.211 155.210  0.00  0.00    +0.000 A 
ATOM      5  C   UNL     1     103.855 144.217 155.598  0.00  0.00    +0.000 A 
ATOM      6  O   UNL     1     104.830 144.990 155.739  0.00  0.00    +0.000 OA
ATOM      7  O   UNL     1     102.668 144.784 154.435  0.00  0.00    +0.000 OA
ATOM      8  C   UNL     1     102.799 143.661 155.259  0.00  0.00    +0.000 A 
ATOM      9  C   UNL     1     104.000 143.677 156.048  0.00  0.00    +0.000 A 
ATOM     10  C   UNL     1     102.920 143.115 155.699  0.00  0.00    +0.000 A 
ATOM     11  C   UNL     1     103.532 143.120 156.103  0.00  0.00    +0.000 A 
ENDROOT
BRANCH   1  13
ATOM     12  C   UNL     1     103.159 145.804 153.263  0.00  0.00    +0.000 A 
ATOM     13  C   UNL     1     103.126 145.319 154.388  0.00  0.00    +0.000 A 
ATOM     14  C   UNL     1     103.292 145.264 153.707  0.00  0.00    +0.000 A 
ATOM     15  C   UNL     1     102.858 146.399 153.505  0.00  0.00    +0.000 A 
ATOM     16  C   UNL     1     102.826 145.912 154.633  0.00  0.00    +0.000 A 
ATOM     17  C   UNL     1     102.693 146.452 154.191  0.00  0.00    +0.000 A 
ATOM     18 CL   UNL     1     102.723 146.943 153.064  0.00  0.00    +0.000 Cl
BRANCH  12  19
ATOM     19  S   UNL     1     103.325 145.752 152.574  0.00  0.00    +0.000 S 
ATOM     20  O   UNL     1     103.788 145.856 152.045  0.00  0.00    +0.000 OA
ATOM     21  O   UNL     1     103.959 146.047 152.705  0.00  0.00    +0.000 OA
ATOM     22  N   UNL     1     102.872 145.477 152.123  0.00  0.00    +0.000 NA
ENDBRANCH  12  19
ENDBRANCH   1  13
TORSDOF 2
ENDMDL
MODEL 19
REMARK VINA RESULT:      -8.3     31.357     32.194
REMARK  Name = 
REMARK  2 active torsions:
REMARK  status: ('A' for Active; 'I' for Inactive)
REMARK    1  A    between atoms: C_1  and  C_7
REMARK    2  A    between atoms: S_3  and  C_4
REMARK                            x       y       z     vdW  Elec       q    Type
REMARK                         _______ _______ _______ _____ _____    ______ ____
ROOT
ATOM      1  C   UNL     1     126.600 124.813 183.296  0.00  0.00    +0.000 C 
ATOM      2  N   UNL     1     126.663 125.213 182.715  0.00  0.00    +0.000 NA
ATOM      3  C   UNL     1     126.043 125.479 182.561  0.00  0.00    +0.000 C 
ATOM      4  C   UNL     1     125.942 124.836 183.496  0.00  0.00    +0.000 A 
ATOM      5  C   UNL     1     125.590 125.247 183.045  0.00  0.00    +0.000 A 
ATOM      6  O   UNL     1     125.877 125.908 182.020  0.00  0.00    +0.000 OA
ATOM      7  O   UNL     1     126.960 124.401 183.746  0.00  0.00    +0.000 OA
ATOM      8  C   UNL     1     125.600 124.523 184.053  0.00  0.00    +0.000 A 
ATOM      9  C   UNL     1     124.887 125.363 183.130  0.00  0.00    +0.000 A 
ATOM     10  C   UNL     1     124.903 124.623 184.158  0.00  0.00    +0.000 A 
ATOM     11  C   UNL     1     124.537 125.051 183.689  0.00  0.00    +0.000 A 
ENDROOT
BRANCH   1  13
ATOM     12  C   UNL     1     128.214 124.004 182.807  0.00  0.00    +0.000 A 
ATOM     13  C   UNL     1     127.291 124.706 183.203  0.00  0.00    +0.000 A 
ATOM     14  C   UNL     1     127.517 124.113 182.901  0.00  0.00    +0.000 A 
ATOM     15  C   UNL     1     128.683 124.493 183.017  0.00  0.00    +0.000 A 
ATOM     16  C   UNL     1     127.756 125.196 183.414  0.00  0.00    +0.000 A 
ATOM     17  C   UNL     1     128.453 125.089 183.321  0.00  0.00    +0.000 A 
ATOM     18 CL   UNL     1     129.382 124.388 182.925  0.00  0.00    +0.000 Cl
BRANCH  12  19
ATOM     19  S   UNL     1     128.447 123.406 182.502  0.00  0.00    +0.000 S 
ATOM     20  O   UNL     1     128.656 123.054 181.921  0.00  0.00    +0.000 OA
ATOM     21  O   UNL     1     128.464 123.733 181.872  0.00  0.00    +0.000 OA
ATOM     22  N   UNL     1     128.547 122.832 182.885  0.00  0.00    +0.000 NA
ENDBRANCH  12  19
ENDBRANCH   1  13
TORSDOF 2
ENDMDL
MODEL 20
REMARK VINA RESULT:      -8.2     40.645     41.554
REMARK  Name = 
REMARK  2 active torsions:
REMARK  status: ('A' for Active; 'I' for Inactive)
REMARK    1  A    between atoms: C_1  and  C_7
REMARK    2  A    between atoms: S_3  and  C_4
REMARK                            x       y       z     vdW  Elec       q    Type
REMARK                         _______ _______ _______ _____ _____    ______ ____
ROOT
ATOM      1  C   UNL     1     103.357 147.385 151.870  0.00  0.00    +0.000 C 
ATOM      2  N   UNL     1     104.065 147.396 151.876  0.00  0.00    +0.000 NA
ATOM      3  C   UNL     1     104.281 147.947 151.517  0.00  0.00    +0.000 C 
ATOM      4  C   UNL     1     103.142 147.929 151.507  0.00  0.00    +0.000 A 
ATOM      5  C   UNL     1     103.709 148.283 151.286  0.00  0.00    +0.000 A 
ATOM      6  O   UNL     1     104.950 148.151 151.396  0.00  0.00    +0.000 OA
ATOM      7  O   UNL     1     102.790 147.025 152.096  0.00  0.00    +0.000 OA
ATOM      8  C   UNL     1     102.476 148.161 151.342  0.00  0.00    +0.000 A 
ATOM      9  C   UNL     1     103.637 148.878 150.892  0.00  0.00    +0.000 A 
ATOM     10  C   UNL     1     102.378 148.749 150.953  0.00  0.00    +0.000 A 
ATOM     11  C   UNL     1     102.969 149.117 150.722  0.00  0.00    +0.000 A 
ENDROOT
BRANCH   1  13
ATOM     12  C   UNL     1     103.505 146.248 153.348  0.00  0.00    +0.000 A 
ATOM     13  C   UNL     1     103.440 146.800 152.256  0.00  0.00    +0.000 A 
ATOM     14  C   UNL     1     103.421 146.838 152.958  0.00  0.00    +0.000 A 
ATOM     15  C   UNL     1     103.607 145.622 153.031  0.00  0.00    +0.000 A 
ATOM     16  C   UNL     1     103.542 146.177 151.936  0.00  0.00    +0.000 A 
ATOM     17  C   UNL     1     103.625 145.588 152.325  0.00  0.00    +0.000 A 
ATOM     18 CL   UNL     1     103.691 145.029 153.418  0.00  0.00    +0.000 Cl
BRANCH  12  19
ATOM     19  S   UNL     1     103.487 146.282 154.058  0.00  0.00    +0.000 S 
ATOM     20  O   UNL     1     103.118 146.251 154.665  0.00  0.00    +0.000 OA
ATOM     21  O   UNL     1     102.786 146.163 154.045  0.00  0.00    +0.000 OA
ATOM     22  N   UNL     1     104.070 146.399 154.419  0.00  0.00    +0.000 NA
ENDBRANCH  12  19
ENDBRANCH   1  13
TORSDOF 2
ENDMDL
