REMARK  Name = 
REMARK  10 active torsions:
REMARK  status: ('A' for Active; 'I' for Inactive)
REMARK    1  A    between atoms: N_1  and  C_4
REMARK    2  A    between atoms: N_1  and  C_5
REMARK    3  A    between atoms: N_1  and  C_6
REMARK    4  A    between atoms: N_2  and  C_3
REMARK    5  A    between atoms: C_3  and  C_4
REMARK    6  A    between atoms: C_3  and  C_9
REMARK    7  A    between atoms: C_5  and  C_8
REMARK    8  A    between atoms: O_7  and  C_9
REMARK    9  A    between atoms: O_7  and  C_14
REMARK   10  A    between atoms: C_14  and  C_15
REMARK                            x       y       z     vdW  Elec       q    Type
REMARK                         _______ _______ _______ _____ _____    ______ ____
ROOT
ATOM      1  N   UNL     1      -0.725  -0.863   0.000  0.00  0.00    +0.000 N 
ENDROOT
BRANCH   1   2
ATOM      2  C   UNL     1      -1.337  -1.217   0.000  0.00  0.00    +0.000 A 
ATOM      3  C   UNL     1      -1.337  -1.929   0.000  0.00  0.00    +0.000 A 
ATOM      4  C   UNL     1      -1.950  -0.867   0.000  0.00  0.00    +0.000 A 
ATOM      5  C   UNL     1      -1.950  -2.288   0.000  0.00  0.00    +0.000 A 
ATOM      6  C   UNL     1      -2.562  -1.225   0.000  0.00  0.00    +0.000 A 
ATOM      7  C   UNL     1      -2.562  -1.929   0.000  0.00  0.00    +0.000 A 
ENDBRANCH   1   2
BRANCH   1   8
ATOM      8  C   UNL     1      -0.113  -1.217   0.000  0.00  0.00    +0.000 C 
BRANCH   8   9
ATOM      9  C   UNL     1       0.500  -0.854   0.000  0.00  0.00    +0.000 C 
BRANCH   9  10
ATOM     10  N   UNL     1       0.500  -0.150   0.000  0.00  0.00    +0.000 NA
ATOM     11  C   UNL     1      -0.075   0.263   0.000  0.00  0.00    +0.000 C 
ATOM     12  C   UNL     1       1.067   0.271   0.000  0.00  0.00    +0.000 C 
ATOM     13  C   UNL     1       0.142   0.938   0.000  0.00  0.00    +0.000 C 
ATOM     14  C   UNL     1       0.850   0.938   0.000  0.00  0.00    +0.000 C 
ENDBRANCH   9  10
BRANCH   9  15
ATOM     15  C   UNL     1       1.117  -1.212   0.000  0.00  0.00    +0.000 C 
BRANCH  15  16
ATOM     16  O   UNL     1       1.729  -0.854   0.000  0.00  0.00    +0.000 OA
BRANCH  16  17
ATOM     17  C   UNL     1       2.342  -1.204   0.000  0.00  0.00    +0.000 C 
BRANCH  17  18
ATOM     18  C   UNL     1       2.954  -0.850   0.000  0.00  0.00    +0.000 C 
ATOM     19  C   UNL     1       2.950  -0.142   0.000  0.00  0.00    +0.000 C 
ATOM     20  C   UNL     1       3.567  -1.204   0.000  0.00  0.00    +0.000 C 
ENDBRANCH  17  18
ENDBRANCH  16  17
ENDBRANCH  15  16
ENDBRANCH   9  15
ENDBRANCH   8   9
ENDBRANCH   1   8
BRANCH   1  21
ATOM     21  C   UNL     1      -0.733  -0.154   0.000  0.00  0.00    +0.000 C 
BRANCH  21  22
ATOM     22  C   UNL     1      -1.346   0.196   0.000  0.00  0.00    +0.000 A 
ATOM     23  C   UNL     1      -1.346   0.908   0.000  0.00  0.00    +0.000 A 
ATOM     24  C   UNL     1      -1.950  -0.154   0.000  0.00  0.00    +0.000 A 
ATOM     25  C   UNL     1      -2.571   0.196   0.000  0.00  0.00    +0.000 A 
ATOM     26  C   UNL     1      -1.958   1.258   0.000  0.00  0.00    +0.000 A 
ATOM     27  C   UNL     1      -2.571   0.900   0.000  0.00  0.00    +0.000 A 
ENDBRANCH  21  22
ENDBRANCH   1  21
TORSDOF 10
