REMARK  Name = 
REMARK  10 active torsions:
REMARK  status: ('A' for Active; 'I' for Inactive)
REMARK    1  A    between atoms: C_4  and  C_17
REMARK    2  A    between atoms: C_11  and  O_18
REMARK    3  A    between atoms: C_12  and  C_15
REMARK    4  A    between atoms: C_12  and  O_18
REMARK    5  A    between atoms: C_14  and  O_34
REMARK    6  A    between atoms: C_16  and  O_32
REMARK    7  A    between atoms: C_17  and  O_35
REMARK    8  A    between atoms: C_20  and  O_36
REMARK    9  A    between atoms: C_21  and  O_37
REMARK   10  A    between atoms: C_31  and  O_38
REMARK                            x       y       z     vdW  Elec       q    Type
REMARK                         _______ _______ _______ _____ _____    ______ ____
ROOT
ATOM      1  C   UNL     1       0.829  -8.938   0.000  0.00  0.00    +0.000 A 
ATOM      2  N   UNL     1       0.154  -9.154   0.000  0.00  0.00    +0.000 NA
ATOM      3  C   UNL     1       0.829  -8.229   0.000  0.00  0.00    +0.000 A 
ATOM      4  C   UNL     1       2.042 -11.042   0.000  0.00  0.00    +0.000 C 
ATOM      5  C   UNL     1       2.050 -10.342   0.000  0.00  0.00    +0.000 C 
ATOM      6  C   UNL     1       1.442  -9.287   0.000  0.00  0.00    +0.000 C 
ATOM      7  N   UNL     1       2.054  -8.938   0.000  0.00  0.00    +0.000 NA
ATOM      8  C   UNL     1      -0.263  -8.588   0.000  0.00  0.00    +0.000 A 
ATOM      9  C   UNL     1       0.154  -8.017   0.000  0.00  0.00    +0.000 A 
ATOM     10  C   UNL     1       2.663  -9.992   0.000  0.00  0.00    +0.000 C 
ATOM     11  C   UNL     1       3.267 -11.054   0.000  0.00  0.00    +0.000 C 
ATOM     12  C   UNL     1       1.438  -9.992   0.000  0.00  0.00    +0.000 C 
ATOM     13  C   UNL     1       2.654 -11.400   0.000  0.00  0.00    +0.000 C 
ATOM     14  C   UNL     1       2.667  -9.287   0.000  0.00  0.00    +0.000 C 
ATOM     15  C   UNL     1       3.267 -10.342   0.000  0.00  0.00    +0.000 C 
ATOM     16  C   UNL     1       1.442  -7.875   0.000  0.00  0.00    +0.000 C 
ATOM     17  C   UNL     1      -0.958  -8.517   0.000  0.00  0.00    +0.000 A 
ATOM     18  C   UNL     1      -0.133  -7.375   0.000  0.00  0.00    +0.000 A 
ATOM     19  C   UNL     1       2.054  -8.229   0.000  0.00  0.00    +0.000 C 
ATOM     20  C   UNL     1      -1.250  -7.879   0.000  0.00  0.00    +0.000 A 
ATOM     21  C   UNL     1      -0.838  -7.300   0.000  0.00  0.00    +0.000 A 
ENDROOT
BRANCH   4  22
ATOM     22  C   UNL     1       1.429 -11.392   0.000  0.00  0.00    +0.000 C 
ATOM     23  O   UNL     1       1.429 -12.104   0.000  0.00  0.00    +0.000 OA
BRANCH  22  24
ATOM     24  O   UNL     1       0.817 -11.037   0.000  0.00  0.00    +0.000 OA
ATOM     25  C   UNL     1       0.204 -11.387   0.000  0.00  0.00    +0.000 C 
ENDBRANCH  22  24
ENDBRANCH   4  22
BRANCH  13  26
ATOM     26  O   UNL     1       2.650 -12.104   0.000  0.00  0.00    +0.000 OA
ATOM     27  C   UNL     1       2.029 -12.454   0.000  0.00  0.00    +0.000 C 
ENDBRANCH  13  26
BRANCH  20  28
ATOM     28  O   UNL     1      -1.958  -7.804   0.000  0.00  0.00    +0.000 OA
ATOM     29  C   UNL     1      -2.246  -7.162   0.000  0.00  0.00    +0.000 C 
ENDBRANCH  20  28
BRANCH  11  30
ATOM     30  O   UNL     1       3.879 -11.404   0.000  0.00  0.00    +0.000 OA
BRANCH  30  31
ATOM     31  C   UNL     1       4.492 -11.054   0.000  0.00  0.00    +0.000 C 
ATOM     32  O   UNL     1       4.492 -10.350   0.000  0.00  0.00    +0.000 OA
BRANCH  31  33
ATOM     33  C   UNL     1       5.104 -11.417   0.000  0.00  0.00    +0.000 A 
ATOM     34  C   UNL     1       6.325 -12.129   0.000  0.00  0.00    +0.000 A 
ATOM     35  C   UNL     1       6.325 -11.417   0.000  0.00  0.00    +0.000 A 
ATOM     36  C   UNL     1       5.704 -12.479   0.000  0.00  0.00    +0.000 A 
ATOM     37  C   UNL     1       5.717 -11.067   0.000  0.00  0.00    +0.000 A 
ATOM     38  C   UNL     1       5.100 -12.125   0.000  0.00  0.00    +0.000 A 
BRANCH  34  39
ATOM     39  O   UNL     1       6.938 -12.488   0.000  0.00  0.00    +0.000 OA
ATOM     40  C   UNL     1       6.929 -13.192   0.000  0.00  0.00    +0.000 C 
ENDBRANCH  34  39
BRANCH  35  41
ATOM     41  O   UNL     1       6.942 -11.067   0.000  0.00  0.00    +0.000 OA
ATOM     42  C   UNL     1       7.554 -11.417   0.000  0.00  0.00    +0.000 C 
ENDBRANCH  35  41
BRANCH  36  43
ATOM     43  O   UNL     1       5.704 -13.192   0.000  0.00  0.00    +0.000 OA
ATOM     44  C   UNL     1       5.088 -13.542   0.000  0.00  0.00    +0.000 C 
ENDBRANCH  36  43
ENDBRANCH  31  33
ENDBRANCH  30  31
ENDBRANCH  11  30
TORSDOF 10
