REMARK  Name = 
REMARK  6 active torsions:
REMARK  status: ('A' for Active; 'I' for Inactive)
REMARK    1  A    between atoms: N_5  and  C_15
REMARK    2  A    between atoms: N_9  and  C_19
REMARK    3  A    between atoms: N_9  and  C_20
REMARK    4  A    between atoms: C_15  and  C_18
REMARK    5  A    between atoms: C_18  and  C_19
REMARK    6  A    between atoms: C_20  and  C_22
REMARK                            x       y       z     vdW  Elec       q    Type
REMARK                         _______ _______ _______ _____ _____    ______ ____
ROOT
ATOM      1  O   UNL     1       0.390  -0.408   0.000  0.00  0.00    +0.000 OA
ATOM      2  O   UNL     1      -1.734  -2.320   0.000  0.00  0.00    +0.000 OA
ATOM      3  N   UNL     1      -0.882   0.854   0.000  0.00  0.00    +0.000 N 
ATOM      4  N   UNL     1      -2.031  -0.923   0.000  0.00  0.00    +0.000 N 
ATOM      5  N   UNL     1      -0.672  -1.364   0.000  0.00  0.00    +0.000 N 
ATOM      6  N   UNL     1      -2.188   0.577   0.000  0.00  0.00    +0.000 NA
ATOM      7  C   UNL     1      -0.969   0.034   0.000  0.00  0.00    +0.000 A 
ATOM      8  C   UNL     1      -1.776  -0.138   0.000  0.00  0.00    +0.000 A 
ATOM      9  C   UNL     1      -0.417  -0.580   0.000  0.00  0.00    +0.000 A 
ATOM     10  C   UNL     1      -1.479  -1.536   0.000  0.00  0.00    +0.000 A 
ATOM     11  C   UNL     1      -1.636   1.190   0.000  0.00  0.00    +0.000 A 
ATOM     12  C   UNL     1      -2.838  -1.094   0.000  0.00  0.00    +0.000 C 
ATOM     13  C   UNL     1      -0.120  -1.977   0.000  0.00  0.00    +0.000 C 
ENDROOT
BRANCH   3  14
ATOM     14  C   UNL     1      -0.168   1.266   0.000  0.00  0.00    +0.000 C 
BRANCH  14  16
ATOM     15  O   UNL     1       0.546   0.029   0.000  0.00  0.00    +0.000 OA
ATOM     16  C   UNL     1       0.546   0.854   0.000  0.00  0.00    +0.000 C 
BRANCH  16  17
ATOM     17  C   UNL     1       1.261   1.266   0.000  0.00  0.00    +0.000 C 
BRANCH  17  18
ATOM     18  N   UNL     1       1.975   0.854   0.000  0.00  0.00    +0.000 NA
ATOM     19  C   UNL     1       1.975   0.029   0.000  0.00  0.00    +0.000 C 
BRANCH  18  20
ATOM     20  C   UNL     1       2.690   1.266   0.000  0.00  0.00    +0.000 C 
BRANCH  20  22
ATOM     21  O   UNL     1       4.119   1.266   0.000  0.00  0.00    +0.000 OA
ATOM     22  C   UNL     1       3.404   0.854   0.000  0.00  0.00    +0.000 C 
ENDBRANCH  20  22
ENDBRANCH  18  20
ENDBRANCH  17  18
ENDBRANCH  16  17
ENDBRANCH  14  16
ENDBRANCH   3  14
TORSDOF 6
