REMARK  Name = 
REMARK  5 active torsions:
REMARK  status: ('A' for Active; 'I' for Inactive)
REMARK    1  A    between atoms: C_8  and  C_9
REMARK    2  A    between atoms: C_9  and  C_10
REMARK    3  A    between atoms: C_10  and  C_11
REMARK    4  A    between atoms: C_16  and  C_20
REMARK    5  A    between atoms: C_20  and  C_23
REMARK                            x       y       z     vdW  Elec       q    Type
REMARK                         _______ _______ _______ _____ _____    ______ ____
ROOT
ATOM      1  O   HOH     1      12.470 -12.789   0.000  0.00  0.00    +0.000 OA
ENDROOT
TORSDOF 0
REMARK  Name = 
REMARK  5 active torsions:
REMARK  status: ('A' for Active; 'I' for Inactive)
REMARK    1  A    between atoms: C_8  and  C_9
REMARK    2  A    between atoms: C_9  and  C_10
REMARK    3  A    between atoms: C_10  and  C_11
REMARK    4  A    between atoms: C_16  and  C_20
REMARK    5  A    between atoms: C_20  and  C_23
REMARK                            x       y       z     vdW  Elec       q    Type
REMARK                         _______ _______ _______ _____ _____    ______ ____
ROOT
ATOM      1  O   UNL     1       9.727  -9.471   0.000  0.00  0.00    +0.000 OA
ATOM      2  C   UNL     1       9.727 -10.296   0.000  0.00  0.00    +0.000 C 
ENDROOT
BRANCH   2   5
ATOM      3  O   UNL     1       8.298 -10.296   0.000  0.00  0.00    +0.000 OA
ATOM      4  O   UNL     1       9.012 -11.533   0.000  0.00  0.00    +0.000 OA
ATOM      5  C   UNL     1       9.012 -10.708   0.000  0.00  0.00    +0.000 C 
ENDBRANCH   2   5
BRANCH   2   7
ATOM      6  O   UNL     1      10.441 -11.533   0.000  0.00  0.00    +0.000 OA
ATOM      7  C   UNL     1      10.441 -10.708   0.000  0.00  0.00    +0.000 C 
BRANCH   7  10
ATOM      8  O   UNL     1      11.870 -10.708   0.000  0.00  0.00    +0.000 OA
ATOM      9  O   UNL     1      11.156  -9.471   0.000  0.00  0.00    +0.000 OA
ATOM     10  C   UNL     1      11.156 -10.296   0.000  0.00  0.00    +0.000 C 
ENDBRANCH   7  10
ENDBRANCH   2   7
TORSDOF 3
REMARK  Name = 
REMARK  5 active torsions:
REMARK  status: ('A' for Active; 'I' for Inactive)
REMARK    1  A    between atoms: C_8  and  C_9
REMARK    2  A    between atoms: C_9  and  C_10
REMARK    3  A    between atoms: C_10  and  C_11
REMARK    4  A    between atoms: C_16  and  C_20
REMARK    5  A    between atoms: C_20  and  C_23
REMARK                            x       y       z     vdW  Elec       q    Type
REMARK                         _______ _______ _______ _____ _____    ______ ____
ROOT
ATOM      1  O   UNL     1      13.992 -11.843   0.000  0.00  0.00    +0.000 OA
ATOM      2  O   UNL     1      15.421 -12.668   0.000  0.00  0.00    +0.000 OA
ATOM      3  C   UNL     1      15.421 -10.193   0.000  0.00  0.00    +0.000 A 
ATOM      4  C   UNL     1      14.706 -11.430   0.000  0.00  0.00    +0.000 A 
ATOM      5  C   UNL     1      15.421 -11.843   0.000  0.00  0.00    +0.000 A 
ATOM      6  C   UNL     1      14.706 -10.605   0.000  0.00  0.00    +0.000 A 
ATOM      7  C   UNL     1      16.135 -10.605   0.000  0.00  0.00    +0.000 A 
ATOM      8  C   UNL     1      16.135 -11.430   0.000  0.00  0.00    +0.000 A 
ENDROOT
BRANCH   3  10
ATOM      9  O   UNL     1      16.135  -8.955   0.000  0.00  0.00    +0.000 OA
ATOM     10  C   UNL     1      15.421  -9.368   0.000  0.00  0.00    +0.000 C 
BRANCH  10  12
ATOM     11  N   UNL     1      14.706  -8.130   0.000  0.00  0.00    +0.000 NA
ATOM     12  C   UNL     1      14.706  -8.955   0.000  0.00  0.00    +0.000 C 
ENDBRANCH  10  12
ENDBRANCH   3  10
TORSDOF 2
