
     RDKit          2D

 10  9  0  0  0  0  0  0  0  0999 V2000
   -2.5625   -0.5542    0.0000 C   0  0  0  0  0  0  0  0  0  0  0  0
   -3.5833    0.4583    0.0000 O   0  0  0  0  0  0  0  0  0  0  0  0
    3.6542    0.0625    0.0000 N   0  0  0  0  0  0  0  0  0  0  0  0
   -0.0708   -0.5917    0.0000 C   0  0  0  0  0  0  0  0  0  0  0  0
   -1.3125    0.1333    0.0000 C   0  0  0  0  0  0  0  0  0  0  0  0
    2.4000   -0.6167    0.0000 C   0  0  0  0  0  0  0  0  0  0  0  0
   -1.7625   -1.7542    0.0000 C   0  0  0  0  0  0  0  0  0  0  0  0
   -3.6833   -1.4750    0.0000 C   0  0  0  0  0  0  0  0  0  0  0  0
    1.1667    0.0958    0.0000 C   0  0  0  0  0  0  0  0  0  0  0  0
    2.3792   -2.0542    0.0000 C   0  0  0  0  0  0  0  0  0  0  0  0
  2  1  1  0
  3  6  1  0
  4  5  1  0
  5  1  1  0
  6  9  1  0
  7  1  1  0
  8  1  1  0
  9  4  1  0
 10  6  1  0
M  END


> <chembl_id>
CHEMBL2111076

> <chembl_pref_name>
HEPTAMINOL
