REMARK  Name = 
REMARK  8 active torsions:
REMARK  status: ('A' for Active; 'I' for Inactive)
REMARK    1  A    between atoms: CB_6  and  CA_7
REMARK    2  A    between atoms: CB_6  and  CG_8
REMARK    3  A    between atoms: CA_7  and  C_9
REMARK    4  A    between atoms: CG_8  and  CD_10
REMARK    5  A    between atoms: P_11  and  O_12
REMARK    6  A    between atoms: O_12  and  C_21
REMARK    7  A    between atoms: C_19  and  C_21
REMARK    8  A    between atoms: C_20  and  C_26
REMARK                            x       y       z     vdW  Elec       q    Type
REMARK                         _______ _______ _______ _____ _____    ______ ____
ROOT
ATOM      1  CB  GLN A   1       8.999  -0.752   0.000  0.00  0.00    +0.000 C 
ENDROOT
BRANCH   1   3
ATOM      2  N   GLN A   1       7.699  -2.702   0.000  0.00  0.00    +0.000 NA
ATOM      3  CA  GLN A   1       7.699  -1.502   0.000  0.00  0.00    +0.000 C 
BRANCH   3   6
ATOM      4  O   GLN A   1       6.399   0.448   0.000  0.00  0.00    +0.000 OA
ATOM      5  OXT GLN A   1       5.359  -1.352   0.000  0.00  0.00    +0.000 OA
ATOM      6  C   GLN A   1       6.399  -0.752   0.000  0.00  0.00    +0.000 C 
ENDBRANCH   3   6
ENDBRANCH   1   3
BRANCH   1   7
ATOM      7  CG  GLN A   1      10.299  -1.502   0.000  0.00  0.00    +0.000 C 
BRANCH   7  10
ATOM      8  OE1 GLN A   1      12.638  -1.352   0.000  0.00  0.00    +0.000 OA
ATOM      9  NE2 GLN A   1      11.599   0.448   0.000  0.00  0.00    +0.000 NA
ATOM     10  CD  GLN A   1      11.599  -0.752   0.000  0.00  0.00    +0.000 C 
ENDBRANCH   7  10
ENDBRANCH   1   7
TORSDOF 4
REMARK  Name = 
REMARK  8 active torsions:
REMARK  status: ('A' for Active; 'I' for Inactive)
REMARK    1  A    between atoms: CB_6  and  CA_7
REMARK    2  A    between atoms: CB_6  and  CG_8
REMARK    3  A    between atoms: CA_7  and  C_9
REMARK    4  A    between atoms: CG_8  and  CD_10
REMARK    5  A    between atoms: P_11  and  O_12
REMARK    6  A    between atoms: O_12  and  C_21
REMARK    7  A    between atoms: C_19  and  C_21
REMARK    8  A    between atoms: C_20  and  C_26
REMARK                            x       y       z     vdW  Elec       q    Type
REMARK                         _______ _______ _______ _____ _____    ______ ____
ROOT
ATOM      1  O   UNL     1       0.000   2.700   0.000  0.00  0.00    +0.000 OA
ATOM      2  N   UNL     1       1.299  -0.750   0.000  0.00  0.00    +0.000 NA
ATOM      3  C   UNL     1      -1.299  -0.750   0.000  0.00  0.00    +0.000 A 
ATOM      4  C   UNL     1      -1.299   0.750   0.000  0.00  0.00    +0.000 A 
ATOM      5  C   UNL     1       0.000   1.500   0.000  0.00  0.00    +0.000 A 
ATOM      6  C   UNL     1       1.299   0.750   0.000  0.00  0.00    +0.000 A 
ATOM      7  C   UNL     1       0.000  -1.500   0.000  0.00  0.00    +0.000 A 
ATOM      8  C   UNL     1       2.338   1.350   0.000  0.00  0.00    +0.000 C 
ENDROOT
BRANCH   4  10
ATOM      9  O   UNL     1      -2.596   2.703   0.000  0.00  0.00    +0.000 OA
ATOM     10  C   UNL     1      -2.597   1.503   0.000  0.00  0.00    +0.000 C 
ENDBRANCH   4  10
BRANCH   3  11
ATOM     11  C   UNL     1      -2.597  -1.503   0.000  0.00  0.00    +0.000 C 
BRANCH  11  12
ATOM     12  O   UNL     1      -2.595  -3.004   0.000  0.00  0.00    +0.000 OA
BRANCH  12  13
ATOM     13  P   UNL     1      -3.893  -3.757   0.000  0.00  0.00    +0.000 P 
ATOM     14  O   UNL     1      -4.934  -3.159   0.000  0.00  0.00    +0.000 OA
ATOM     15  O   UNL     1      -4.932  -4.359   0.000  0.00  0.00    +0.000 OA
ATOM     16  O   UNL     1      -3.892  -4.957   0.000  0.00  0.00    +0.000 OA
ENDBRANCH  12  13
ENDBRANCH  11  12
ENDBRANCH   3  11
TORSDOF 4
