MODEL 1
REMARK VINA RESULT:     -10.7      0.000      0.000
REMARK  Name = 
REMARK  11 active torsions:
REMARK  status: ('A' for Active; 'I' for Inactive)
REMARK    1  A    between atoms: C_1  and  C_13
REMARK    2  A    between atoms: C_2  and  C_18
REMARK    3  A    between atoms: N_3  and  C_20
REMARK    4  A    between atoms: C_5  and  C_30
REMARK    5  A    between atoms: C_6  and  C_17
REMARK    6  A    between atoms: C_8  and  C_22
REMARK    7  A    between atoms: C_13  and  O_21
REMARK    8  A    between atoms: C_19  and  C_23
REMARK    9  A    between atoms: C_20  and  C_28
REMARK   10  A    between atoms: O_21  and  C_22
REMARK   11  A    between atoms: C_30  and  C_38
REMARK                            x       y       z     vdW  Elec       q    Type
REMARK                         _______ _______ _______ _____ _____    ______ ____
ROOT
ATOM      1  C   UNL     1     120.529 153.327 199.403  0.00  0.00    +0.000 A 
ATOM      2  C   UNL     1     120.430 153.175 200.086  0.00  0.00    +0.000 A 
ATOM      3  N   UNL     1     120.262 152.797 199.018  0.00  0.00    +0.000 N 
ATOM      4  N   UNL     1     120.098 152.545 200.119  0.00  0.00    +0.000 NA
ATOM      5  C   UNL     1     119.989 152.300 199.456  0.00  0.00    +0.000 A 
ENDROOT
BRANCH   2   6
ATOM      6  C   UNL     1     120.716 153.738 200.408  0.00  0.00    +0.000 C 
ATOM      7  O   UNL     1     121.329 154.014 200.175  0.00  0.00    +0.000 OA
ATOM      8  C   UNL     1     120.692 154.235 200.920  0.00  0.00    +0.000 C 
ATOM      9  C   UNL     1     120.176 153.751 200.867  0.00  0.00    +0.000 C 
ENDBRANCH   2   6
BRANCH   1  10
ATOM     10  C   UNL     1     120.809 153.839 199.026  0.00  0.00    +0.000 C 
ATOM     11  O   UNL     1     121.504 153.893 198.964  0.00  0.00    +0.000 OA
BRANCH  10  12
ATOM     12  O   UNL     1     120.395 154.288 198.717  0.00  0.00    +0.000 OA
BRANCH  12  13
ATOM     13  C   UNL     1     120.662 154.883 198.478  0.00  0.00    +0.000 C 
BRANCH  13  14
ATOM     14  C   UNL     1     120.266 155.305 198.094  0.00  0.00    +0.000 A 
ATOM     15  C   UNL     1     119.266 155.804 197.957  0.00  0.00    +0.000 A 
ATOM     16  O   UNL     1     119.609 155.377 198.381  0.00  0.00    +0.000 OA
ATOM     17  O   UNL     1     119.678 155.982 197.451  0.00  0.00    +0.000 OA
ATOM     18  C   UNL     1     120.301 155.653 197.562  0.00  0.00    +0.000 A 
ATOM     19  O   UNL     1     118.595 156.024 198.035  0.00  0.00    +0.000 OA
ATOM     20  C   UNL     1     120.892 155.670 197.185  0.00  0.00    +0.000 C 
ENDBRANCH  13  14
ENDBRANCH  12  13
ENDBRANCH  10  12
ENDBRANCH   1  10
BRANCH   3  21
ATOM     21  C   UNL     1     120.258 152.750 198.319  0.00  0.00    +0.000 C 
BRANCH  21  25
ATOM     22  C   UNL     1     121.521 151.315 197.273  0.00  0.00    +0.000 A 
ATOM     23  C   UNL     1     121.756 151.614 197.908  0.00  0.00    +0.000 A 
ATOM     24  C   UNL     1     120.875 151.497 196.998  0.00  0.00    +0.000 A 
ATOM     25  C   UNL     1     120.678 152.274 197.974  0.00  0.00    +0.000 A 
ATOM     26  C   UNL     1     120.442 151.983 197.349  0.00  0.00    +0.000 A 
ATOM     27  C   UNL     1     121.324 152.093 198.249  0.00  0.00    +0.000 A 
BRANCH  22  29
ATOM     28  C   UNL     1     122.420 151.049 196.409  0.00  0.00    +0.000 A 
ATOM     29  C   UNL     1     121.932 150.835 196.914  0.00  0.00    +0.000 A 
ATOM     30  C   UNL     1     122.812 150.562 196.070  0.00  0.00    +0.000 A 
ATOM     31  C   UNL     1     121.856 150.142 197.059  0.00  0.00    +0.000 A 
ATOM     32  C   UNL     1     122.736 149.869 196.214  0.00  0.00    +0.000 A 
ATOM     33  C   UNL     1     122.266 149.649 196.702  0.00  0.00    +0.000 A 
BRANCH  28  34
ATOM     34  C   UNL     1     122.490 151.682 196.277  0.00  0.00    +0.000 A 
ATOM     35  N   UNL     1     122.847 152.791 196.306  0.00  0.00    +0.000 NA
ATOM     36  N   UNL     1     122.932 152.103 196.626  0.00  0.00    +0.000 NA
ATOM     37  N   UNL     1     122.336 152.733 195.760  0.00  0.00    +0.000 NA
ATOM     38  N   UNL     1     122.119 151.988 195.767  0.00  0.00    +0.000 NA
ENDBRANCH  28  34
ENDBRANCH  22  29
ENDBRANCH  21  25
ENDBRANCH   3  21
BRANCH   5  39
ATOM     39  C   UNL     1     119.704 151.739 199.122  0.00  0.00    +0.000 C 
BRANCH  39  40
ATOM     40  C   UNL     1     119.307 151.328 199.490  0.00  0.00    +0.000 C 
ATOM     41  C   UNL     1     118.781 151.002 199.221  0.00  0.00    +0.000 C 
ENDBRANCH  39  40
ENDBRANCH   5  39
TORSDOF 11
ENDMDL
MODEL 2
REMARK VINA RESULT:     -10.1     69.110     71.743
REMARK  Name = 
REMARK  11 active torsions:
REMARK  status: ('A' for Active; 'I' for Inactive)
REMARK    1  A    between atoms: C_1  and  C_13
REMARK    2  A    between atoms: C_2  and  C_18
REMARK    3  A    between atoms: N_3  and  C_20
REMARK    4  A    between atoms: C_5  and  C_30
REMARK    5  A    between atoms: C_6  and  C_17
REMARK    6  A    between atoms: C_8  and  C_22
REMARK    7  A    between atoms: C_13  and  O_21
REMARK    8  A    between atoms: C_19  and  C_23
REMARK    9  A    between atoms: C_20  and  C_28
REMARK   10  A    between atoms: O_21  and  C_22
REMARK   11  A    between atoms: C_30  and  C_38
REMARK                            x       y       z     vdW  Elec       q    Type
REMARK                         _______ _______ _______ _____ _____    ______ ____
ROOT
ATOM      1  C   UNL     1     153.764 132.559 137.093  0.00  0.00    +0.000 A 
ATOM      2  C   UNL     1     153.417 133.113 136.824  0.00  0.00    +0.000 A 
ATOM      3  N   UNL     1     154.091 132.768 137.684  0.00  0.00    +0.000 N 
ATOM      4  N   UNL     1     153.533 133.668 137.257  0.00  0.00    +0.000 NA
ATOM      5  C   UNL     1     153.953 133.463 137.798  0.00  0.00    +0.000 A 
ENDROOT
BRANCH   2   6
ATOM      6  C   UNL     1     153.118 132.836 136.245  0.00  0.00    +0.000 C 
ATOM      7  O   UNL     1     152.846 132.179 136.257  0.00  0.00    +0.000 OA
ATOM      8  C   UNL     1     152.929 132.897 135.559  0.00  0.00    +0.000 C 
ATOM      9  C   UNL     1     153.257 133.433 135.887  0.00  0.00    +0.000 C 
ENDBRANCH   2   6
BRANCH   1  10
ATOM     10  C   UNL     1     153.865 131.890 136.935  0.00  0.00    +0.000 C 
ATOM     11  O   UNL     1     153.359 131.420 137.052  0.00  0.00    +0.000 OA
BRANCH  10  12
ATOM     12  O   UNL     1     154.463 131.699 136.664  0.00  0.00    +0.000 OA
BRANCH  12  13
ATOM     13  C   UNL     1     154.513 131.075 136.363  0.00  0.00    +0.000 C 
BRANCH  13  14
ATOM     14  C   UNL     1     155.136 130.843 136.159  0.00  0.00    +0.000 A 
ATOM     15  C   UNL     1     156.102 131.063 135.625  0.00  0.00    +0.000 A 
ATOM     16  O   UNL     1     155.497 131.351 135.800  0.00  0.00    +0.000 OA
ATOM     17  O   UNL     1     156.112 130.428 135.858  0.00  0.00    +0.000 OA
ATOM     18  C   UNL     1     155.491 130.316 136.191  0.00  0.00    +0.000 A 
ATOM     19  O   UNL     1     156.627 131.374 135.263  0.00  0.00    +0.000 OA
ATOM     20  C   UNL     1     155.252 129.743 136.517  0.00  0.00    +0.000 C 
ENDBRANCH  13  14
ENDBRANCH  12  13
ENDBRANCH  10  12
ENDBRANCH   1  10
BRANCH   3  21
ATOM     21  C   UNL     1     154.489 132.373 138.104  0.00  0.00    +0.000 C 
BRANCH  21  25
ATOM     22  C   UNL     1     153.809 131.789 140.090  0.00  0.00    +0.000 A 
ATOM     23  C   UNL     1     153.313 131.895 139.550  0.00  0.00    +0.000 A 
ATOM     24  C   UNL     1     154.517 131.878 139.961  0.00  0.00    +0.000 A 
ATOM     25  C   UNL     1     154.261 132.179 138.762  0.00  0.00    +0.000 A 
ATOM     26  C   UNL     1     154.754 132.077 139.289  0.00  0.00    +0.000 A 
ATOM     27  C   UNL     1     153.553 132.090 138.890  0.00  0.00    +0.000 A 
BRANCH  22  29
ATOM     28  C   UNL     1     153.509 130.889 140.942  0.00  0.00    +0.000 A 
ATOM     29  C   UNL     1     153.596 131.594 140.757  0.00  0.00    +0.000 A 
ATOM     30  C   UNL     1     153.299 130.721 141.601  0.00  0.00    +0.000 A 
ATOM     31  C   UNL     1     153.470 132.103 141.239  0.00  0.00    +0.000 A 
ATOM     32  C   UNL     1     153.174 131.229 142.083  0.00  0.00    +0.000 A 
ATOM     33  C   UNL     1     153.255 131.916 141.915  0.00  0.00    +0.000 A 
BRANCH  28  34
ATOM     34  C   UNL     1     153.623 130.425 140.501  0.00  0.00    +0.000 A 
ATOM     35  N   UNL     1     154.161 129.644 139.823  0.00  0.00    +0.000 NA
ATOM     36  N   UNL     1     154.266 130.172 140.364  0.00  0.00    +0.000 NA
ATOM     37  N   UNL     1     153.429 129.614 139.663  0.00  0.00    +0.000 NA
ATOM     38  N   UNL     1     153.101 130.142 140.129  0.00  0.00    +0.000 NA
ENDBRANCH  28  34
ENDBRANCH  22  29
ENDBRANCH  21  25
ENDBRANCH   3  21
BRANCH   5  39
ATOM     39  C   UNL     1     154.258 133.730 138.383  0.00  0.00    +0.000 C 
BRANCH  39  40
ATOM     40  C   UNL     1     154.280 134.407 138.440  0.00  0.00    +0.000 C 
ATOM     41  C   UNL     1     154.785 134.725 138.757  0.00  0.00    +0.000 C 
ENDBRANCH  39  40
ENDBRANCH   5  39
TORSDOF 11
ENDMDL
MODEL 3
REMARK VINA RESULT:      -9.1     69.584     72.129
REMARK  Name = 
REMARK  11 active torsions:
REMARK  status: ('A' for Active; 'I' for Inactive)
REMARK    1  A    between atoms: C_1  and  C_13
REMARK    2  A    between atoms: C_2  and  C_18
REMARK    3  A    between atoms: N_3  and  C_20
REMARK    4  A    between atoms: C_5  and  C_30
REMARK    5  A    between atoms: C_6  and  C_17
REMARK    6  A    between atoms: C_8  and  C_22
REMARK    7  A    between atoms: C_13  and  O_21
REMARK    8  A    between atoms: C_19  and  C_23
REMARK    9  A    between atoms: C_20  and  C_28
REMARK   10  A    between atoms: O_21  and  C_22
REMARK   11  A    between atoms: C_30  and  C_38
REMARK                            x       y       z     vdW  Elec       q    Type
REMARK                         _______ _______ _______ _____ _____    ______ ____
ROOT
ATOM      1  C   UNL     1     154.234 132.108 139.105  0.00  0.00    +0.000 A 
ATOM      2  C   UNL     1     153.938 132.020 139.742  0.00  0.00    +0.000 A 
ATOM      3  N   UNL     1     154.198 131.493 138.758  0.00  0.00    +0.000 N 
ATOM      4  N   UNL     1     153.719 131.343 139.784  0.00  0.00    +0.000 NA
ATOM      5  C   UNL     1     153.877 131.004 139.174  0.00  0.00    +0.000 A 
ENDROOT
BRANCH   2   6
ATOM      6  C   UNL     1     154.008 132.664 140.029  0.00  0.00    +0.000 C 
ATOM      7  O   UNL     1     153.937 133.248 139.630  0.00  0.00    +0.000 OA
ATOM      8  C   UNL     1     154.132 133.074 140.600  0.00  0.00    +0.000 C 
ATOM      9  C   UNL     1     154.133 132.368 140.662  0.00  0.00    +0.000 C 
ENDBRANCH   2   6
BRANCH   1  10
ATOM     10  C   UNL     1     154.538 132.619 138.746  0.00  0.00    +0.000 C 
ATOM     11  O   UNL     1     154.149 133.104 138.425  0.00  0.00    +0.000 OA
BRANCH  10  12
ATOM     12  O   UNL     1     155.221 132.640 138.713  0.00  0.00    +0.000 OA
BRANCH  12  13
ATOM     13  C   UNL     1     155.526 133.169 138.382  0.00  0.00    +0.000 C 
BRANCH  13  14
ATOM     14  C   UNL     1     156.219 133.199 138.351  0.00  0.00    +0.000 A 
ATOM     15  C   UNL     1     157.200 132.677 138.530  0.00  0.00    +0.000 A 
ATOM     16  O   UNL     1     156.515 132.586 138.584  0.00  0.00    +0.000 OA
ATOM     17  O   UNL     1     157.315 133.296 138.283  0.00  0.00    +0.000 OA
ATOM     18  C   UNL     1     156.680 133.603 138.180  0.00  0.00    +0.000 A 
ATOM     19  O   UNL     1     157.701 132.204 138.702  0.00  0.00    +0.000 OA
ATOM     20  C   UNL     1     156.524 134.241 137.933  0.00  0.00    +0.000 C 
ENDBRANCH  13  14
ENDBRANCH  12  13
ENDBRANCH  10  12
ENDBRANCH   1  10
BRANCH   3  21
ATOM     21  C   UNL     1     154.433 131.364 138.111  0.00  0.00    +0.000 C 
BRANCH  21  25
ATOM     22  C   UNL     1     153.051 131.111 136.445  0.00  0.00    +0.000 A 
ATOM     23  C   UNL     1     153.678 130.719 136.463  0.00  0.00    +0.000 A 
ATOM     24  C   UNL     1     152.895 131.578 136.978  0.00  0.00    +0.000 A 
ATOM     25  C   UNL     1     153.976 131.278 137.558  0.00  0.00    +0.000 A 
ATOM     26  C   UNL     1     153.360 131.668 137.546  0.00  0.00    +0.000 A 
ATOM     27  C   UNL     1     154.132 130.812 137.025  0.00  0.00    +0.000 A 
BRANCH  22  29
ATOM     28  C   UNL     1     152.661 131.411 135.269  0.00  0.00    +0.000 A 
ATOM     29  C   UNL     1     152.582 131.037 135.896  0.00  0.00    +0.000 A 
ATOM     30  C   UNL     1     152.189 131.323 134.744  0.00  0.00    +0.000 A 
ATOM     31  C   UNL     1     152.033 130.590 135.972  0.00  0.00    +0.000 A 
ATOM     32  C   UNL     1     151.640 130.876 134.820  0.00  0.00    +0.000 A 
ATOM     33  C   UNL     1     151.553 130.508 135.422  0.00  0.00    +0.000 A 
BRANCH  28  34
ATOM     34  C   UNL     1     153.162 131.819 135.200  0.00  0.00    +0.000 A 
ATOM     35  N   UNL     1     154.222 132.251 134.980  0.00  0.00    +0.000 NA
ATOM     36  N   UNL     1     153.802 131.615 134.990  0.00  0.00    +0.000 NA
ATOM     37  N   UNL     1     153.787 132.823 135.196  0.00  0.00    +0.000 NA
ATOM     38  N   UNL     1     153.092 132.504 135.333  0.00  0.00    +0.000 NA
ENDBRANCH  28  34
ENDBRANCH  22  29
ENDBRANCH  21  25
ENDBRANCH   3  21
BRANCH   5  39
ATOM     39  C   UNL     1     153.812 130.361 138.875  0.00  0.00    +0.000 C 
BRANCH  39  40
ATOM     40  C   UNL     1     153.872 129.821 139.283  0.00  0.00    +0.000 C 
ATOM     41  C   UNL     1     153.511 129.259 139.190  0.00  0.00    +0.000 C 
ENDBRANCH  39  40
ENDBRANCH   5  39
TORSDOF 11
ENDMDL
MODEL 4
REMARK VINA RESULT:      -8.8      2.218      4.679
REMARK  Name = 
REMARK  11 active torsions:
REMARK  status: ('A' for Active; 'I' for Inactive)
REMARK    1  A    between atoms: C_1  and  C_13
REMARK    2  A    between atoms: C_2  and  C_18
REMARK    3  A    between atoms: N_3  and  C_20
REMARK    4  A    between atoms: C_5  and  C_30
REMARK    5  A    between atoms: C_6  and  C_17
REMARK    6  A    between atoms: C_8  and  C_22
REMARK    7  A    between atoms: C_13  and  O_21
REMARK    8  A    between atoms: C_19  and  C_23
REMARK    9  A    between atoms: C_20  and  C_28
REMARK   10  A    between atoms: O_21  and  C_22
REMARK   11  A    between atoms: C_30  and  C_38
REMARK                            x       y       z     vdW  Elec       q    Type
REMARK                         _______ _______ _______ _____ _____    ______ ____
ROOT
ATOM      1  C   UNL     1     118.957 152.440 199.220  0.00  0.00    +0.000 A 
ATOM      2  C   UNL     1     118.322 152.138 199.298  0.00  0.00    +0.000 A 
ATOM      3  N   UNL     1     119.251 152.506 199.860  0.00  0.00    +0.000 N 
ATOM      4  N   UNL     1     118.227 152.018 199.995  0.00  0.00    +0.000 NA
ATOM      5  C   UNL     1     118.802 152.245 200.355  0.00  0.00    +0.000 A 
ENDROOT
BRANCH   2   6
ATOM      6  C   UNL     1     118.090 152.104 198.630  0.00  0.00    +0.000 C 
ATOM      7  O   UNL     1     118.208 152.640 198.178  0.00  0.00    +0.000 OA
ATOM      8  C   UNL     1     117.748 151.749 198.113  0.00  0.00    +0.000 C 
ATOM      9  C   UNL     1     117.816 151.462 198.758  0.00  0.00    +0.000 C 
ENDBRANCH   2   6
BRANCH   1  10
ATOM     10  C   UNL     1     119.352 152.679 198.701  0.00  0.00    +0.000 C 
ATOM     11  O   UNL     1     119.211 153.299 198.407  0.00  0.00    +0.000 OA
BRANCH  10  12
ATOM     12  O   UNL     1     119.878 152.300 198.482  0.00  0.00    +0.000 OA
BRANCH  12  13
ATOM     13  C   UNL     1     120.181 152.461 197.878  0.00  0.00    +0.000 C 
BRANCH  13  14
ATOM     14  C   UNL     1     120.761 152.130 197.688  0.00  0.00    +0.000 A 
ATOM     15  C   UNL     1     121.309 151.151 197.598  0.00  0.00    +0.000 A 
ATOM     16  O   UNL     1     120.706 151.422 197.805  0.00  0.00    +0.000 OA
ATOM     17  O   UNL     1     121.703 151.652 197.372  0.00  0.00    +0.000 OA
ATOM     18  C   UNL     1     121.333 152.258 197.440  0.00  0.00    +0.000 A 
ATOM     19  O   UNL     1     121.489 150.464 197.617  0.00  0.00    +0.000 OA
ATOM     20  C   UNL     1     121.514 152.916 197.279  0.00  0.00    +0.000 C 
ENDBRANCH  13  14
ENDBRANCH  12  13
ENDBRANCH  10  12
ENDBRANCH   1  10
BRANCH   3  21
ATOM     21  C   UNL     1     119.878 152.780 200.005  0.00  0.00    +0.000 C 
BRANCH  21  25
ATOM     22  C   UNL     1     120.068 154.701 201.017  0.00  0.00    +0.000 A 
ATOM     23  C   UNL     1     119.483 154.573 200.582  0.00  0.00    +0.000 A 
ATOM     24  C   UNL     1     120.576 154.192 201.108  0.00  0.00    +0.000 A 
ATOM     25  C   UNL     1     119.939 153.418 200.340  0.00  0.00    +0.000 A 
ATOM     26  C   UNL     1     120.517 153.538 200.767  0.00  0.00    +0.000 A 
ATOM     27  C   UNL     1     119.431 153.927 200.248  0.00  0.00    +0.000 A 
BRANCH  22  29
ATOM     28  C   UNL     1     120.500 155.900 201.052  0.00  0.00    +0.000 A 
ATOM     29  C   UNL     1     120.144 155.337 201.361  0.00  0.00    +0.000 A 
ATOM     30  C   UNL     1     120.562 156.514 201.407  0.00  0.00    +0.000 A 
ATOM     31  C   UNL     1     119.865 155.410 202.011  0.00  0.00    +0.000 A 
ATOM     32  C   UNL     1     120.283 156.588 202.058  0.00  0.00    +0.000 A 
ATOM     33  C   UNL     1     119.936 156.049 202.367  0.00  0.00    +0.000 A 
BRANCH  28  34
ATOM     34  C   UNL     1     120.754 155.833 200.458  0.00  0.00    +0.000 A 
ATOM     35  N   UNL     1     120.889 155.827 199.300  0.00  0.00    +0.000 NA
ATOM     36  N   UNL     1     120.400 155.975 199.867  0.00  0.00    +0.000 NA
ATOM     37  N   UNL     1     121.534 155.595 199.603  0.00  0.00    +0.000 NA
ATOM     38  N   UNL     1     121.413 155.610 200.369  0.00  0.00    +0.000 NA
ENDBRANCH  28  34
ENDBRANCH  22  29
ENDBRANCH  21  25
ENDBRANCH   3  21
BRANCH   5  39
ATOM     39  C   UNL     1     119.046 152.284 201.022  0.00  0.00    +0.000 C 
BRANCH  39  40
ATOM     40  C   UNL     1     118.864 151.789 201.450  0.00  0.00    +0.000 C 
ATOM     41  C   UNL     1     118.757 151.902 202.107  0.00  0.00    +0.000 C 
ENDBRANCH  39  40
ENDBRANCH   5  39
TORSDOF 11
ENDMDL
MODEL 5
REMARK VINA RESULT:      -8.4     70.689     72.575
REMARK  Name = 
REMARK  11 active torsions:
REMARK  status: ('A' for Active; 'I' for Inactive)
REMARK    1  A    between atoms: C_1  and  C_13
REMARK    2  A    between atoms: C_2  and  C_18
REMARK    3  A    between atoms: N_3  and  C_20
REMARK    4  A    between atoms: C_5  and  C_30
REMARK    5  A    between atoms: C_6  and  C_17
REMARK    6  A    between atoms: C_8  and  C_22
REMARK    7  A    between atoms: C_13  and  O_21
REMARK    8  A    between atoms: C_19  and  C_23
REMARK    9  A    between atoms: C_20  and  C_28
REMARK   10  A    between atoms: O_21  and  C_22
REMARK   11  A    between atoms: C_30  and  C_38
REMARK                            x       y       z     vdW  Elec       q    Type
REMARK                         _______ _______ _______ _____ _____    ______ ____
ROOT
ATOM      1  C   UNL     1     152.051 132.602 136.156  0.00  0.00    +0.000 A 
ATOM      2  C   UNL     1     151.427 132.911 136.284  0.00  0.00    +0.000 A 
ATOM      3  N   UNL     1     152.498 132.783 136.674  0.00  0.00    +0.000 N 
ATOM      4  N   UNL     1     151.494 133.285 136.887  0.00  0.00    +0.000 NA
ATOM      5  C   UNL     1     152.160 133.212 137.139  0.00  0.00    +0.000 A 
ENDROOT
BRANCH   2   6
ATOM      6  C   UNL     1     151.036 132.690 135.736  0.00  0.00    +0.000 C 
ATOM      7  O   UNL     1     151.087 132.020 135.502  0.00  0.00    +0.000 OA
ATOM      8  C   UNL     1     150.549 132.824 135.232  0.00  0.00    +0.000 C 
ATOM      9  C   UNL     1     150.746 133.335 135.683  0.00  0.00    +0.000 C 
ENDBRANCH   2   6
BRANCH   1  10
ATOM     10  C   UNL     1     152.329 132.185 135.675  0.00  0.00    +0.000 C 
ATOM     11  O   UNL     1     152.232 131.493 135.709  0.00  0.00    +0.000 OA
BRANCH  10  12
ATOM     12  O   UNL     1     152.697 132.462 135.168  0.00  0.00    +0.000 OA
BRANCH  12  13
ATOM     13  C   UNL     1     153.019 132.042 134.719  0.00  0.00    +0.000 C 
BRANCH  13  14
ATOM     14  C   UNL     1     153.327 132.313 134.158  0.00  0.00    +0.000 A 
ATOM     15  C   UNL     1     153.870 133.189 133.705  0.00  0.00    +0.000 A 
ATOM     16  O   UNL     1     153.578 132.974 134.295  0.00  0.00    +0.000 OA
ATOM     17  O   UNL     1     153.804 132.700 133.242  0.00  0.00    +0.000 OA
ATOM     18  C   UNL     1     153.458 132.160 133.554  0.00  0.00    +0.000 A 
ATOM     19  O   UNL     1     154.187 133.815 133.597  0.00  0.00    +0.000 OA
ATOM     20  C   UNL     1     153.265 131.539 133.293  0.00  0.00    +0.000 C 
ENDBRANCH  13  14
ENDBRANCH  12  13
ENDBRANCH  10  12
ENDBRANCH   1  10
BRANCH   3  21
ATOM     21  C   UNL     1     153.166 132.585 136.737  0.00  0.00    +0.000 C 
BRANCH  21  25
ATOM     22  C   UNL     1     153.786 131.177 138.279  0.00  0.00    +0.000 A 
ATOM     23  C   UNL     1     153.195 131.024 137.862  0.00  0.00    +0.000 A 
ATOM     24  C   UNL     1     154.159 131.790 138.178  0.00  0.00    +0.000 A 
ATOM     25  C   UNL     1     153.370 132.116 137.248  0.00  0.00    +0.000 A 
ATOM     26  C   UNL     1     153.953 132.272 137.656  0.00  0.00    +0.000 A 
ATOM     27  C   UNL     1     152.997 131.503 137.349  0.00  0.00    +0.000 A 
BRANCH  22  29
ATOM     28  C   UNL     1     154.495 130.188 138.660  0.00  0.00    +0.000 A 
ATOM     29  C   UNL     1     154.005 130.716 138.797  0.00  0.00    +0.000 A 
ATOM     30  C   UNL     1     154.695 129.747 139.183  0.00  0.00    +0.000 A 
ATOM     31  C   UNL     1     153.733 130.782 139.452  0.00  0.00    +0.000 A 
ATOM     32  C   UNL     1     154.423 129.814 139.837  0.00  0.00    +0.000 A 
ATOM     33  C   UNL     1     153.946 130.322 139.983  0.00  0.00    +0.000 A 
BRANCH  28  34
ATOM     34  C   UNL     1     154.744 130.127 138.063  0.00  0.00    +0.000 A 
ATOM     35  N   UNL     1     154.905 129.809 136.953  0.00  0.00    +0.000 NA
ATOM     36  N   UNL     1     154.450 129.732 137.560  0.00  0.00    +0.000 NA
ATOM     37  N   UNL     1     155.469 130.267 137.140  0.00  0.00    +0.000 NA
ATOM     38  N   UNL     1     155.333 130.459 137.880  0.00  0.00    +0.000 NA
ENDBRANCH  28  34
ENDBRANCH  22  29
ENDBRANCH  21  25
ENDBRANCH   3  21
BRANCH   5  39
ATOM     39  C   UNL     1     152.562 133.427 137.685  0.00  0.00    +0.000 C 
BRANCH  39  40
ATOM     40  C   UNL     1     152.321 133.934 138.068  0.00  0.00    +0.000 C 
ATOM     41  C   UNL     1     152.725 134.336 138.430  0.00  0.00    +0.000 C 
ENDBRANCH  39  40
ENDBRANCH   5  39
TORSDOF 11
ENDMDL
MODEL 6
REMARK VINA RESULT:      -8.3     23.699     25.202
REMARK  Name = 
REMARK  11 active torsions:
REMARK  status: ('A' for Active; 'I' for Inactive)
REMARK    1  A    between atoms: C_1  and  C_13
REMARK    2  A    between atoms: C_2  and  C_18
REMARK    3  A    between atoms: N_3  and  C_20
REMARK    4  A    between atoms: C_5  and  C_30
REMARK    5  A    between atoms: C_6  and  C_17
REMARK    6  A    between atoms: C_8  and  C_22
REMARK    7  A    between atoms: C_13  and  O_21
REMARK    8  A    between atoms: C_19  and  C_23
REMARK    9  A    between atoms: C_20  and  C_28
REMARK   10  A    between atoms: O_21  and  C_22
REMARK   11  A    between atoms: C_30  and  C_38
REMARK                            x       y       z     vdW  Elec       q    Type
REMARK                         _______ _______ _______ _____ _____    ______ ____
ROOT
ATOM      1  C   UNL     1     117.957 158.430 174.978  0.00  0.00    +0.000 A 
ATOM      2  C   UNL     1     118.354 157.875 175.167  0.00  0.00    +0.000 A 
ATOM      3  N   UNL     1     117.290 158.208 174.902  0.00  0.00    +0.000 N 
ATOM      4  N   UNL     1     117.924 157.308 175.206  0.00  0.00    +0.000 NA
ATOM      5  C   UNL     1     117.256 157.506 175.042  0.00  0.00    +0.000 A 
ENDROOT
BRANCH   2   6
ATOM      6  C   UNL     1     118.998 158.166 175.225  0.00  0.00    +0.000 C 
ATOM      7  O   UNL     1     119.215 158.658 174.760  0.00  0.00    +0.000 OA
ATOM      8  C   UNL     1     119.623 158.216 175.565  0.00  0.00    +0.000 C 
ATOM      9  C   UNL     1     119.127 157.766 175.797  0.00  0.00    +0.000 C 
ENDBRANCH   2   6
BRANCH   1  10
ATOM     10  C   UNL     1     118.047 159.107 174.854  0.00  0.00    +0.000 C 
ATOM     11  O   UNL     1     118.327 159.320 174.249  0.00  0.00    +0.000 OA
BRANCH  10  12
ATOM     12  O   UNL     1     117.857 159.560 175.330  0.00  0.00    +0.000 OA
BRANCH  12  13
ATOM     13  C   UNL     1     118.086 160.215 175.282  0.00  0.00    +0.000 C 
BRANCH  13  14
ATOM     14  C   UNL     1     117.831 160.698 175.712  0.00  0.00    +0.000 A 
ATOM     15  C   UNL     1     117.549 160.976 176.765  0.00  0.00    +0.000 A 
ATOM     16  O   UNL     1     117.809 160.456 176.389  0.00  0.00    +0.000 OA
ATOM     17  O   UNL     1     117.422 161.497 176.352  0.00  0.00    +0.000 OA
ATOM     18  C   UNL     1     117.609 161.294 175.695  0.00  0.00    +0.000 A 
ATOM     19  O   UNL     1     117.433 160.972 177.466  0.00  0.00    +0.000 OA
ATOM     20  C   UNL     1     117.578 161.646 175.089  0.00  0.00    +0.000 C 
ENDBRANCH  13  14
ENDBRANCH  12  13
ENDBRANCH  10  12
ENDBRANCH   1  10
BRANCH   3  21
ATOM     21  C   UNL     1     116.738 158.599 174.719  0.00  0.00    +0.000 C 
BRANCH  21  25
ATOM     22  C   UNL     1     115.801 158.370 172.765  0.00  0.00    +0.000 A 
ATOM     23  C   UNL     1     115.391 158.576 173.345  0.00  0.00    +0.000 A 
ATOM     24  C   UNL     1     116.511 158.245 172.843  0.00  0.00    +0.000 A 
ATOM     25  C   UNL     1     116.425 158.524 174.072  0.00  0.00    +0.000 A 
ATOM     26  C   UNL     1     116.835 158.321 173.504  0.00  0.00    +0.000 A 
ATOM     27  C   UNL     1     115.716 158.649 173.994  0.00  0.00    +0.000 A 
BRANCH  22  29
ATOM     28  C   UNL     1     115.445 158.854 171.640  0.00  0.00    +0.000 A 
ATOM     29  C   UNL     1     115.502 158.291 172.108  0.00  0.00    +0.000 A 
ATOM     30  C   UNL     1     115.148 158.753 171.002  0.00  0.00    +0.000 A 
ATOM     31  C   UNL     1     115.260 157.649 171.917  0.00  0.00    +0.000 A 
ATOM     32  C   UNL     1     114.906 158.111 170.811  0.00  0.00    +0.000 A 
ATOM     33  C   UNL     1     114.956 157.557 171.255  0.00  0.00    +0.000 A 
BRANCH  28  34
ATOM     34  C   UNL     1     115.666 159.440 171.815  0.00  0.00    +0.000 A 
ATOM     35  N   UNL     1     115.739 160.509 172.272  0.00  0.00    +0.000 NA
ATOM     36  N   UNL     1     115.286 159.901 172.187  0.00  0.00    +0.000 NA
ATOM     37  N   UNL     1     116.391 160.365 171.930  0.00  0.00    +0.000 NA
ATOM     38  N   UNL     1     116.310 159.651 171.638  0.00  0.00    +0.000 NA
ENDBRANCH  28  34
ENDBRANCH  22  29
ENDBRANCH  21  25
ENDBRANCH   3  21
BRANCH   5  39
ATOM     39  C   UNL     1     116.605 157.225 174.981  0.00  0.00    +0.000 C 
BRANCH  39  40
ATOM     40  C   UNL     1     116.452 156.702 175.388  0.00  0.00    +0.000 C 
ATOM     41  C   UNL     1     116.000 156.232 175.214  0.00  0.00    +0.000 C 
ENDBRANCH  39  40
ENDBRANCH   5  39
TORSDOF 11
ENDMDL
MODEL 7
REMARK VINA RESULT:      -8.3     75.934     78.178
REMARK  Name = 
REMARK  11 active torsions:
REMARK  status: ('A' for Active; 'I' for Inactive)
REMARK    1  A    between atoms: C_1  and  C_13
REMARK    2  A    between atoms: C_2  and  C_18
REMARK    3  A    between atoms: N_3  and  C_20
REMARK    4  A    between atoms: C_5  and  C_30
REMARK    5  A    between atoms: C_6  and  C_17
REMARK    6  A    between atoms: C_8  and  C_22
REMARK    7  A    between atoms: C_13  and  O_21
REMARK    8  A    between atoms: C_19  and  C_23
REMARK    9  A    between atoms: C_20  and  C_28
REMARK   10  A    between atoms: O_21  and  C_22
REMARK   11  A    between atoms: C_30  and  C_38
REMARK                            x       y       z     vdW  Elec       q    Type
REMARK                         _______ _______ _______ _____ _____    ______ ____
ROOT
ATOM      1  C   UNL     1     138.543 119.637 129.985  0.00  0.00    +0.000 A 
ATOM      2  C   UNL     1     138.470 120.340 129.980  0.00  0.00    +0.000 A 
ATOM      3  N   UNL     1     138.737 119.440 130.636  0.00  0.00    +0.000 N 
ATOM      4  N   UNL     1     138.621 120.576 130.635  0.00  0.00    +0.000 NA
ATOM      5  C   UNL     1     138.789 120.021 131.054  0.00  0.00    +0.000 A 
ENDROOT
BRANCH   2   6
ATOM      6  C   UNL     1     138.278 120.465 129.309  0.00  0.00    +0.000 C 
ATOM      7  O   UNL     1     138.580 120.107 128.774  0.00  0.00    +0.000 OA
ATOM      8  C   UNL     1     137.877 120.821 128.838  0.00  0.00    +0.000 C 
ATOM      9  C   UNL     1     137.816 120.954 129.532  0.00  0.00    +0.000 C 
ENDBRANCH   2   6
BRANCH   1  10
ATOM     10  C   UNL     1     138.477 119.110 129.537  0.00  0.00    +0.000 C 
ATOM     11  O   UNL     1     138.976 118.987 129.061  0.00  0.00    +0.000 OA
BRANCH  10  12
ATOM     12  O   UNL     1     137.920 118.715 129.570  0.00  0.00    +0.000 OA
BRANCH  12  13
ATOM     13  C   UNL     1     137.767 118.303 129.032  0.00  0.00    +0.000 C 
BRANCH  13  14
ATOM     14  C   UNL     1     137.258 117.834 129.093  0.00  0.00    +0.000 A 
ATOM     15  C   UNL     1     136.216 117.607 129.453  0.00  0.00    +0.000 A 
ATOM     16  O   UNL     1     136.683 118.118 129.421  0.00  0.00    +0.000 OA
ATOM     17  O   UNL     1     136.482 117.055 129.168  0.00  0.00    +0.000 OA
ATOM     18  C   UNL     1     137.139 117.225 128.950  0.00  0.00    +0.000 A 
ATOM     19  O   UNL     1     135.565 117.650 129.735  0.00  0.00    +0.000 OA
ATOM     20  C   UNL     1     137.622 116.833 128.627  0.00  0.00    +0.000 C 
ENDBRANCH  13  14
ENDBRANCH  12  13
ENDBRANCH  10  12
ENDBRANCH   1  10
BRANCH   3  21
ATOM     21  C   UNL     1     138.862 118.787 130.856  0.00  0.00    +0.000 C 
BRANCH  21  25
ATOM     22  C   UNL     1     140.876 118.129 131.364  0.00  0.00    +0.000 A 
ATOM     23  C   UNL     1     140.781 118.646 130.843  0.00  0.00    +0.000 A 
ATOM     24  C   UNL     1     140.305 117.842 131.705  0.00  0.00    +0.000 A 
ATOM     25  C   UNL     1     139.531 118.570 131.022  0.00  0.00    +0.000 A 
ATOM     26  C   UNL     1     139.618 118.061 131.537  0.00  0.00    +0.000 A 
ATOM     27  C   UNL     1     140.102 118.858 130.681  0.00  0.00    +0.000 A 
BRANCH  22  29
ATOM     28  C   UNL     1     141.867 117.347 131.188  0.00  0.00    +0.000 A 
ATOM     29  C   UNL     1     141.542 117.901 131.543  0.00  0.00    +0.000 A 
ATOM     30  C   UNL     1     142.520 117.139 131.380  0.00  0.00    +0.000 A 
ATOM     31  C   UNL     1     141.884 118.225 132.077  0.00  0.00    +0.000 A 
ATOM     32  C   UNL     1     142.862 117.463 131.914  0.00  0.00    +0.000 A 
ATOM     33  C   UNL     1     142.557 118.001 132.266  0.00  0.00    +0.000 A 
BRANCH  28  34
ATOM     34  C   UNL     1     141.556 117.051 130.700  0.00  0.00    +0.000 A 
ATOM     35  N   UNL     1     140.861 116.335 130.096  0.00  0.00    +0.000 NA
ATOM     36  N   UNL     1     141.100 116.523 130.796  0.00  0.00    +0.000 NA
ATOM     37  N   UNL     1     141.206 116.783 129.603  0.00  0.00    +0.000 NA
ATOM     38  N   UNL     1     141.658 117.245 130.035  0.00  0.00    +0.000 NA
ENDBRANCH  28  34
ENDBRANCH  22  29
ENDBRANCH  21  25
ENDBRANCH   3  21
BRANCH   5  39
ATOM     39  C   UNL     1     138.982 119.884 131.725  0.00  0.00    +0.000 C 
BRANCH  39  40
ATOM     40  C   UNL     1     138.718 120.278 132.212  0.00  0.00    +0.000 C 
ATOM     41  C   UNL     1     139.079 120.482 132.745  0.00  0.00    +0.000 C 
ENDBRANCH  39  40
ENDBRANCH   5  39
TORSDOF 11
ENDMDL
MODEL 8
REMARK VINA RESULT:      -8.3     48.136     50.221
REMARK  Name = 
REMARK  11 active torsions:
REMARK  status: ('A' for Active; 'I' for Inactive)
REMARK    1  A    between atoms: C_1  and  C_13
REMARK    2  A    between atoms: C_2  and  C_18
REMARK    3  A    between atoms: N_3  and  C_20
REMARK    4  A    between atoms: C_5  and  C_30
REMARK    5  A    between atoms: C_6  and  C_17
REMARK    6  A    between atoms: C_8  and  C_22
REMARK    7  A    between atoms: C_13  and  O_21
REMARK    8  A    between atoms: C_19  and  C_23
REMARK    9  A    between atoms: C_20  and  C_28
REMARK   10  A    between atoms: O_21  and  C_22
REMARK   11  A    between atoms: C_30  and  C_38
REMARK                            x       y       z     vdW  Elec       q    Type
REMARK                         _______ _______ _______ _____ _____    ______ ____
ROOT
ATOM      1  C   UNL     1     131.309 119.397 161.877  0.00  0.00    +0.000 A 
ATOM      2  C   UNL     1     130.860 118.903 161.642  0.00  0.00    +0.000 A 
ATOM      3  N   UNL     1     131.937 119.288 161.571  0.00  0.00    +0.000 N 
ATOM      4  N   UNL     1     131.219 118.488 161.186  0.00  0.00    +0.000 NA
ATOM      5  C   UNL     1     131.893 118.720 161.135  0.00  0.00    +0.000 A 
ENDROOT
BRANCH   2   6
ATOM      6  C   UNL     1     130.262 119.070 161.983  0.00  0.00    +0.000 C 
ATOM      7  O   UNL     1     130.282 119.289 162.660  0.00  0.00    +0.000 OA
ATOM      8  C   UNL     1     129.552 119.137 161.986  0.00  0.00    +0.000 C 
ATOM      9  C   UNL     1     129.886 118.915 161.402  0.00  0.00    +0.000 C 
ENDBRANCH   2   6
BRANCH   1  10
ATOM     10  C   UNL     1     131.296 119.938 162.312  0.00  0.00    +0.000 C 
ATOM     11  O   UNL     1     131.318 119.835 163.004  0.00  0.00    +0.000 OA
BRANCH  10  12
ATOM     12  O   UNL     1     131.261 120.571 162.054  0.00  0.00    +0.000 OA
BRANCH  12  13
ATOM     13  C   UNL     1     131.143 121.104 162.483  0.00  0.00    +0.000 C 
BRANCH  13  14
ATOM     14  C   UNL     1     131.128 121.750 162.230  0.00  0.00    +0.000 A 
ATOM     15  C   UNL     1     130.673 122.471 161.494  0.00  0.00    +0.000 A 
ATOM     16  O   UNL     1     130.640 121.811 161.704  0.00  0.00    +0.000 OA
ATOM     17  O   UNL     1     131.143 122.789 161.861  0.00  0.00    +0.000 OA
ATOM     18  C   UNL     1     131.414 122.312 162.317  0.00  0.00    +0.000 A 
ATOM     19  O   UNL     1     130.283 122.768 160.981  0.00  0.00    +0.000 OA
ATOM     20  C   UNL     1     131.913 122.388 162.804  0.00  0.00    +0.000 C 
ENDBRANCH  13  14
ENDBRANCH  12  13
ENDBRANCH  10  12
ENDBRANCH   1  10
BRANCH   3  21
ATOM     21  C   UNL     1     132.520 119.664 161.667  0.00  0.00    +0.000 C 
BRANCH  21  25
ATOM     22  C   UNL     1     134.223 118.839 162.747  0.00  0.00    +0.000 A 
ATOM     23  C   UNL     1     134.317 119.432 162.315  0.00  0.00    +0.000 A 
ATOM     24  C   UNL     1     133.569 118.532 162.813  0.00  0.00    +0.000 A 
ATOM     25  C   UNL     1     133.086 119.392 162.024  0.00  0.00    +0.000 A 
ATOM     26  C   UNL     1     132.987 118.808 162.448  0.00  0.00    +0.000 A 
ATOM     27  C   UNL     1     133.740 119.699 161.959  0.00  0.00    +0.000 A 
BRANCH  22  29
ATOM     28  C   UNL     1     134.923 118.742 163.808  0.00  0.00    +0.000 A 
ATOM     29  C   UNL     1     134.782 118.553 163.113  0.00  0.00    +0.000 A 
ATOM     30  C   UNL     1     135.476 118.450 164.147  0.00  0.00    +0.000 A 
ATOM     31  C   UNL     1     135.199 118.078 162.785  0.00  0.00    +0.000 A 
ATOM     32  C   UNL     1     135.894 117.975 163.820  0.00  0.00    +0.000 A 
ATOM     33  C   UNL     1     135.767 117.784 163.146  0.00  0.00    +0.000 A 
BRANCH  28  34
ATOM     34  C   UNL     1     134.542 119.175 164.107  0.00  0.00    +0.000 A 
ATOM     35  N   UNL     1     134.074 120.177 164.476  0.00  0.00    +0.000 NA
ATOM     36  N   UNL     1     134.625 119.872 164.046  0.00  0.00    +0.000 NA
ATOM     37  N   UNL     1     133.679 119.618 164.782  0.00  0.00    +0.000 NA
ATOM     38  N   UNL     1     134.013 118.969 164.518  0.00  0.00    +0.000 NA
ENDBRANCH  28  34
ENDBRANCH  22  29
ENDBRANCH  21  25
ENDBRANCH   3  21
BRANCH   5  39
ATOM     39  C   UNL     1     132.500 118.561 160.797  0.00  0.00    +0.000 C 
BRANCH  39  40
ATOM     40  C   UNL     1     132.462 118.122 160.280  0.00  0.00    +0.000 C 
ATOM     41  C   UNL     1     132.849 118.179 159.730  0.00  0.00    +0.000 C 
ENDBRANCH  39  40
ENDBRANCH   5  39
TORSDOF 11
ENDMDL
MODEL 9
REMARK VINA RESULT:      -8.1     60.475     62.845
REMARK  Name = 
REMARK  11 active torsions:
REMARK  status: ('A' for Active; 'I' for Inactive)
REMARK    1  A    between atoms: C_1  and  C_13
REMARK    2  A    between atoms: C_2  and  C_18
REMARK    3  A    between atoms: N_3  and  C_20
REMARK    4  A    between atoms: C_5  and  C_30
REMARK    5  A    between atoms: C_6  and  C_17
REMARK    6  A    between atoms: C_8  and  C_22
REMARK    7  A    between atoms: C_13  and  O_21
REMARK    8  A    between atoms: C_19  and  C_23
REMARK    9  A    between atoms: C_20  and  C_28
REMARK   10  A    between atoms: O_21  and  C_22
REMARK   11  A    between atoms: C_30  and  C_38
REMARK                            x       y       z     vdW  Elec       q    Type
REMARK                         _______ _______ _______ _____ _____    ______ ____
ROOT
ATOM      1  C   UNL     1     143.725 106.018 162.538  0.00  0.00    +0.000 A 
ATOM      2  C   UNL     1     143.638 105.659 163.142  0.00  0.00    +0.000 A 
ATOM      3  N   UNL     1     143.102 106.042 162.204  0.00  0.00    +0.000 N 
ATOM      4  N   UNL     1     142.954 105.461 163.176  0.00  0.00    +0.000 NA
ATOM      5  C   UNL     1     142.610 105.696 162.594  0.00  0.00    +0.000 A 
ENDROOT
BRANCH   2   6
ATOM      6  C   UNL     1     144.290 105.675 163.420  0.00  0.00    +0.000 C 
ATOM      7  O   UNL     1     144.694 106.257 163.361  0.00  0.00    +0.000 OA
ATOM      8  C   UNL     1     144.814 105.351 163.780  0.00  0.00    +0.000 C 
ATOM      9  C   UNL     1     144.206 105.010 163.653  0.00  0.00    +0.000 C 
ENDBRANCH   2   6
BRANCH   1  10
ATOM     10  C   UNL     1     144.241 106.340 162.202  0.00  0.00    +0.000 C 
ATOM     11  O   UNL     1     144.457 106.972 162.411  0.00  0.00    +0.000 OA
BRANCH  10  12
ATOM     12  O   UNL     1     144.531 106.030 161.666  0.00  0.00    +0.000 OA
BRANCH  12  13
ATOM     13  C   UNL     1     145.140 106.266 161.429  0.00  0.00    +0.000 C 
BRANCH  13  14
ATOM     14  C   UNL     1     145.400 106.011 160.838  0.00  0.00    +0.000 A 
ATOM     15  C   UNL     1     145.603 105.101 160.206  0.00  0.00    +0.000 A 
ATOM     16  O   UNL     1     145.328 105.295 160.812  0.00  0.00    +0.000 OA
ATOM     17  O   UNL     1     145.825 105.654 159.886  0.00  0.00    +0.000 OA
ATOM     18  C   UNL     1     145.685 106.212 160.306  0.00  0.00    +0.000 A 
ATOM     19  O   UNL     1     145.647 104.438 159.957  0.00  0.00    +0.000 OA
ATOM     20  C   UNL     1     145.814 106.894 160.206  0.00  0.00    +0.000 C 
ENDBRANCH  13  14
ENDBRANCH  12  13
ENDBRANCH  10  12
ENDBRANCH   1  10
BRANCH   3  21
ATOM     21  C   UNL     1     142.970 106.349 161.589  0.00  0.00    +0.000 C 
BRANCH  21  25
ATOM     22  C   UNL     1     141.841 108.210 161.486  0.00  0.00    +0.000 A 
ATOM     23  C   UNL     1     141.742 107.693 160.966  0.00  0.00    +0.000 A 
ATOM     24  C   UNL     1     142.311 108.101 162.027  0.00  0.00    +0.000 A 
ATOM     25  C   UNL     1     142.595 106.966 161.553  0.00  0.00    +0.000 A 
ATOM     26  C   UNL     1     142.697 107.471 162.068  0.00  0.00    +0.000 A 
ATOM     27  C   UNL     1     142.125 107.075 161.011  0.00  0.00    +0.000 A 
BRANCH  22  29
ATOM     28  C   UNL     1     141.683 109.392 161.034  0.00  0.00    +0.000 A 
ATOM     29  C   UNL     1     141.472 108.836 161.464  0.00  0.00    +0.000 A 
ATOM     30  C   UNL     1     141.306 109.995 161.028  0.00  0.00    +0.000 A 
ATOM     31  C   UNL     1     140.892 108.905 161.871  0.00  0.00    +0.000 A 
ATOM     32  C   UNL     1     140.725 110.065 161.435  0.00  0.00    +0.000 A 
ATOM     33  C   UNL     1     140.511 109.533 161.856  0.00  0.00    +0.000 A 
BRANCH  28  34
ATOM     34  C   UNL     1     142.212 109.328 160.663  0.00  0.00    +0.000 A 
ATOM     35  N   UNL     1     143.318 109.332 160.292  0.00  0.00    +0.000 NA
ATOM     36  N   UNL     1     142.862 109.479 160.887  0.00  0.00    +0.000 NA
ATOM     37  N   UNL     1     142.891 109.091 159.725  0.00  0.00    +0.000 NA
ATOM     38  N   UNL     1     142.166 109.100 160.002  0.00  0.00    +0.000 NA
ENDBRANCH  28  34
ENDBRANCH  22  29
ENDBRANCH  21  25
ENDBRANCH   3  21
BRANCH   5  39
ATOM     39  C   UNL     1     141.960 105.686 162.305  0.00  0.00    +0.000 C 
BRANCH  39  40
ATOM     40  C   UNL     1     141.509 105.251 162.568  0.00  0.00    +0.000 C 
ATOM     41  C   UNL     1     141.024 104.967 162.194  0.00  0.00    +0.000 C 
ENDBRANCH  39  40
ENDBRANCH   5  39
TORSDOF 11
ENDMDL
MODEL 10
REMARK VINA RESULT:      -8.0     25.173     26.562
REMARK  Name = 
REMARK  11 active torsions:
REMARK  status: ('A' for Active; 'I' for Inactive)
REMARK    1  A    between atoms: C_1  and  C_13
REMARK    2  A    between atoms: C_2  and  C_18
REMARK    3  A    between atoms: N_3  and  C_20
REMARK    4  A    between atoms: C_5  and  C_30
REMARK    5  A    between atoms: C_6  and  C_17
REMARK    6  A    between atoms: C_8  and  C_22
REMARK    7  A    between atoms: C_13  and  O_21
REMARK    8  A    between atoms: C_19  and  C_23
REMARK    9  A    between atoms: C_20  and  C_28
REMARK   10  A    between atoms: O_21  and  C_22
REMARK   11  A    between atoms: C_30  and  C_38
REMARK                            x       y       z     vdW  Elec       q    Type
REMARK                         _______ _______ _______ _____ _____    ______ ____
ROOT
ATOM      1  C   UNL     1     115.691 157.569 174.075  0.00  0.00    +0.000 A 
ATOM      2  C   UNL     1     115.484 157.072 174.534  0.00  0.00    +0.000 A 
ATOM      3  N   UNL     1     115.116 157.820 173.747  0.00  0.00    +0.000 N 
ATOM      4  N   UNL     1     114.774 157.020 174.487  0.00  0.00    +0.000 NA
ATOM      5  C   UNL     1     114.534 157.483 173.998  0.00  0.00    +0.000 A 
ENDROOT
BRANCH   2   6
ATOM      6  C   UNL     1     116.099 156.868 174.821  0.00  0.00    +0.000 C 
ATOM      7  O   UNL     1     116.683 156.810 174.419  0.00  0.00    +0.000 OA
ATOM      8  C   UNL     1     116.476 156.663 175.391  0.00  0.00    +0.000 C 
ATOM      9  C   UNL     1     115.786 156.815 175.455  0.00  0.00    +0.000 C 
ENDBRANCH   2   6
BRANCH   1  10
ATOM     10  C   UNL     1     116.286 157.862 173.869  0.00  0.00    +0.000 C 
ATOM     11  O   UNL     1     116.673 157.561 173.369  0.00  0.00    +0.000 OA
BRANCH  10  12
ATOM     12  O   UNL     1     116.485 158.447 174.161  0.00  0.00    +0.000 OA
BRANCH  12  13
ATOM     13  C   UNL     1     117.079 158.742 173.953  0.00  0.00    +0.000 C 
BRANCH  13  14
ATOM     14  C   UNL     1     117.313 159.308 174.281  0.00  0.00    +0.000 A 
ATOM     15  C   UNL     1     117.062 160.235 174.870  0.00  0.00    +0.000 A 
ATOM     16  O   UNL     1     116.769 159.689 174.559  0.00  0.00    +0.000 OA
ATOM     17  O   UNL     1     117.732 160.193 174.788  0.00  0.00    +0.000 OA
ATOM     18  C   UNL     1     117.863 159.600 174.414  0.00  0.00    +0.000 A 
ATOM     19  O   UNL     1     116.723 160.754 175.216  0.00  0.00    +0.000 OA
ATOM     20  C   UNL     1     118.472 159.329 174.198  0.00  0.00    +0.000 C 
ENDBRANCH  13  14
ENDBRANCH  12  13
ENDBRANCH  10  12
ENDBRANCH   1  10
BRANCH   3  21
ATOM     21  C   UNL     1     115.100 158.318 173.255  0.00  0.00    +0.000 C 
BRANCH  21  25
ATOM     22  C   UNL     1     114.887 157.804 171.148  0.00  0.00    +0.000 A 
ATOM     23  C   UNL     1     115.276 158.404 171.341  0.00  0.00    +0.000 A 
ATOM     24  C   UNL     1     114.577 157.389 171.655  0.00  0.00    +0.000 A 
ATOM     25  C   UNL     1     115.031 158.149 172.556  0.00  0.00    +0.000 A 
ATOM     26  C   UNL     1     114.646 157.558 172.372  0.00  0.00    +0.000 A 
ATOM     27  C   UNL     1     115.340 158.565 172.049  0.00  0.00    +0.000 A 
BRANCH  22  29
ATOM     28  C   UNL     1     114.333 157.971 170.012  0.00  0.00    +0.000 A 
ATOM     29  C   UNL     1     114.808 157.621 170.449  0.00  0.00    +0.000 A 
ATOM     30  C   UNL     1     114.272 157.776 169.330  0.00  0.00    +0.000 A 
ATOM     31  C   UNL     1     115.202 157.090 170.187  0.00  0.00    +0.000 A 
ATOM     32  C   UNL     1     114.666 157.244 169.068  0.00  0.00    +0.000 A 
ATOM     33  C   UNL     1     115.129 156.897 169.483  0.00  0.00    +0.000 A 
BRANCH  28  34
ATOM     34  C   UNL     1     113.973 158.457 170.251  0.00  0.00    +0.000 A 
ATOM     35  N   UNL     1     113.622 159.510 170.606  0.00  0.00    +0.000 NA
ATOM     36  N   UNL     1     114.204 159.120 170.303  0.00  0.00    +0.000 NA
ATOM     37  N   UNL     1     113.055 159.033 170.722  0.00  0.00    +0.000 NA
ATOM     38  N   UNL     1     113.319 158.346 170.477  0.00  0.00    +0.000 NA
ENDBRANCH  28  34
ENDBRANCH  22  29
ENDBRANCH  21  25
ENDBRANCH   3  21
BRANCH   5  39
ATOM     39  C   UNL     1     113.922 157.696 173.703  0.00  0.00    +0.000 C 
BRANCH  39  40
ATOM     40  C   UNL     1     113.348 157.531 174.026  0.00  0.00    +0.000 C 
ATOM     41  C   UNL     1     112.792 157.912 173.989  0.00  0.00    +0.000 C 
ENDBRANCH  39  40
ENDBRANCH   5  39
TORSDOF 11
ENDMDL
MODEL 11
REMARK VINA RESULT:      -8.0     36.505     38.291
REMARK  Name = 
REMARK  11 active torsions:
REMARK  status: ('A' for Active; 'I' for Inactive)
REMARK    1  A    between atoms: C_1  and  C_13
REMARK    2  A    between atoms: C_2  and  C_18
REMARK    3  A    between atoms: N_3  and  C_20
REMARK    4  A    between atoms: C_5  and  C_30
REMARK    5  A    between atoms: C_6  and  C_17
REMARK    6  A    between atoms: C_8  and  C_22
REMARK    7  A    between atoms: C_13  and  O_21
REMARK    8  A    between atoms: C_19  and  C_23
REMARK    9  A    between atoms: C_20  and  C_28
REMARK   10  A    between atoms: O_21  and  C_22
REMARK   11  A    between atoms: C_30  and  C_38
REMARK                            x       y       z     vdW  Elec       q    Type
REMARK                         _______ _______ _______ _____ _____    ______ ____
ROOT
ATOM      1  C   UNL     1     104.954 123.394 180.098  0.00  0.00    +0.000 A 
ATOM      2  C   UNL     1     105.411 123.084 180.540  0.00  0.00    +0.000 A 
ATOM      3  N   UNL     1     104.818 124.044 180.340  0.00  0.00    +0.000 N 
ATOM      4  N   UNL     1     105.556 123.551 181.059  0.00  0.00    +0.000 NA
ATOM      5  C   UNL     1     105.190 124.155 180.944  0.00  0.00    +0.000 A 
ENDROOT
BRANCH   2   6
ATOM      6  C   UNL     1     105.501 122.448 180.241  0.00  0.00    +0.000 C 
ATOM      7  O   UNL     1     104.956 122.114 179.930  0.00  0.00    +0.000 OA
ATOM      8  C   UNL     1     105.927 121.900 180.073  0.00  0.00    +0.000 C 
ATOM      9  C   UNL     1     106.187 122.459 180.424  0.00  0.00    +0.000 C 
ENDBRANCH   2   6
BRANCH   1  10
ATOM     10  C   UNL     1     104.618 123.234 179.511  0.00  0.00    +0.000 C 
ATOM     11  O   UNL     1     104.058 122.814 179.529  0.00  0.00    +0.000 OA
BRANCH  10  12
ATOM     12  O   UNL     1     104.843 123.492 178.919  0.00  0.00    +0.000 OA
BRANCH  12  13
ATOM     13  C   UNL     1     104.624 123.209 178.324  0.00  0.00    +0.000 C 
BRANCH  13  14
ATOM     14  C   UNL     1     104.782 123.516 177.721  0.00  0.00    +0.000 A 
ATOM     15  C   UNL     1     105.571 124.002 177.082  0.00  0.00    +0.000 A 
ATOM     16  O   UNL     1     105.476 123.705 177.701  0.00  0.00    +0.000 OA
ATOM     17  O   UNL     1     104.983 123.997 176.749  0.00  0.00    +0.000 OA
ATOM     18  C   UNL     1     104.503 123.685 177.174  0.00  0.00    +0.000 A 
ATOM     19  O   UNL     1     106.180 124.270 176.834  0.00  0.00    +0.000 OA
ATOM     20  C   UNL     1     103.822 123.556 177.066  0.00  0.00    +0.000 C 
ENDBRANCH  13  14
ENDBRANCH  12  13
ENDBRANCH  10  12
ENDBRANCH   1  10
BRANCH   3  21
ATOM     21  C   UNL     1     104.391 124.517 180.050  0.00  0.00    +0.000 C 
BRANCH  21  25
ATOM     22  C   UNL     1     102.495 125.040 180.988  0.00  0.00    +0.000 A 
ATOM     23  C   UNL     1     102.827 125.526 180.539  0.00  0.00    +0.000 A 
ATOM     24  C   UNL     1     102.796 124.393 181.116  0.00  0.00    +0.000 A 
ATOM     25  C   UNL     1     103.762 124.693 180.360  0.00  0.00    +0.000 A 
ATOM     26  C   UNL     1     103.440 124.210 180.801  0.00  0.00    +0.000 A 
ATOM     27  C   UNL     1     103.461 125.339 180.232  0.00  0.00    +0.000 A 
BRANCH  22  29
ATOM     28  C   UNL     1     101.220 125.061 180.980  0.00  0.00    +0.000 A 
ATOM     29  C   UNL     1     101.862 125.201 181.307  0.00  0.00    +0.000 A 
ATOM     30  C   UNL     1     100.612 125.227 181.311  0.00  0.00    +0.000 A 
ATOM     31  C   UNL     1     101.870 125.501 181.953  0.00  0.00    +0.000 A 
ATOM     32  C   UNL     1     100.621 125.527 181.957  0.00  0.00    +0.000 A 
ATOM     33  C   UNL     1     101.237 125.667 182.284  0.00  0.00    +0.000 A 
BRANCH  28  34
ATOM     34  C   UNL     1     101.212 124.787 180.391  0.00  0.00    +0.000 A 
ATOM     35  N   UNL     1     101.237 124.634 179.235  0.00  0.00    +0.000 NA
ATOM     36  N   UNL     1     101.271 125.154 179.793  0.00  0.00    +0.000 NA
ATOM     37  N   UNL     1     101.156 123.958 179.550  0.00  0.00    +0.000 NA
ATOM     38  N   UNL     1     101.143 124.094 180.315  0.00  0.00    +0.000 NA
ENDBRANCH  28  34
ENDBRANCH  22  29
ENDBRANCH  21  25
ENDBRANCH   3  21
BRANCH   5  39
ATOM     39  C   UNL     1     105.092 124.797 181.236  0.00  0.00    +0.000 C 
BRANCH  39  40
ATOM     40  C   UNL     1     105.613 125.065 181.579  0.00  0.00    +0.000 C 
ATOM     41  C   UNL     1     105.525 125.529 182.061  0.00  0.00    +0.000 C 
ENDBRANCH  39  40
ENDBRANCH   5  39
TORSDOF 11
ENDMDL
MODEL 12
REMARK VINA RESULT:      -7.9      2.480      4.585
REMARK  Name = 
REMARK  11 active torsions:
REMARK  status: ('A' for Active; 'I' for Inactive)
REMARK    1  A    between atoms: C_1  and  C_13
REMARK    2  A    between atoms: C_2  and  C_18
REMARK    3  A    between atoms: N_3  and  C_20
REMARK    4  A    between atoms: C_5  and  C_30
REMARK    5  A    between atoms: C_6  and  C_17
REMARK    6  A    between atoms: C_8  and  C_22
REMARK    7  A    between atoms: C_13  and  O_21
REMARK    8  A    between atoms: C_19  and  C_23
REMARK    9  A    between atoms: C_20  and  C_28
REMARK   10  A    between atoms: O_21  and  C_22
REMARK   11  A    between atoms: C_30  and  C_38
REMARK                            x       y       z     vdW  Elec       q    Type
REMARK                         _______ _______ _______ _____ _____    ______ ____
ROOT
ATOM      1  C   UNL     1     119.206 153.506 197.542  0.00  0.00    +0.000 A 
ATOM      2  C   UNL     1     119.839 153.754 197.345  0.00  0.00    +0.000 A 
ATOM      3  N   UNL     1     119.293 152.847 197.785  0.00  0.00    +0.000 N 
ATOM      4  N   UNL     1     120.318 153.240 197.470  0.00  0.00    +0.000 NA
ATOM      5  C   UNL     1     119.986 152.669 197.745  0.00  0.00    +0.000 A 
ENDROOT
BRANCH   2   6
ATOM      6  C   UNL     1     119.680 154.405 197.116  0.00  0.00    +0.000 C 
ATOM      7  O   UNL     1     119.190 154.796 197.451  0.00  0.00    +0.000 OA
ATOM      8  C   UNL     1     119.781 154.937 196.651  0.00  0.00    +0.000 C 
ATOM      9  C   UNL     1     120.153 154.337 196.592  0.00  0.00    +0.000 C 
ENDBRANCH   2   6
BRANCH   1  10
ATOM     10  C   UNL     1     118.549 153.730 197.558  0.00  0.00    +0.000 C 
ATOM     11  O   UNL     1     118.332 154.151 198.074  0.00  0.00    +0.000 OA
BRANCH  10  12
ATOM     12  O   UNL     1     118.119 153.534 197.062  0.00  0.00    +0.000 OA
BRANCH  12  13
ATOM     13  C   UNL     1     117.493 153.832 197.023  0.00  0.00    +0.000 C 
BRANCH  13  14
ATOM     14  C   UNL     1     117.037 153.608 196.549  0.00  0.00    +0.000 A 
ATOM     15  C   UNL     1     116.813 153.426 195.461  0.00  0.00    +0.000 A 
ATOM     16  O   UNL     1     117.308 153.662 195.884  0.00  0.00    +0.000 OA
ATOM     17  O   UNL     1     116.281 153.242 195.835  0.00  0.00    +0.000 OA
ATOM     18  C   UNL     1     116.449 153.367 196.517  0.00  0.00    +0.000 A 
ATOM     19  O   UNL     1     116.850 153.383 194.753  0.00  0.00    +0.000 OA
ATOM     20  C   UNL     1     116.074 153.263 197.100  0.00  0.00    +0.000 C 
ENDBRANCH  13  14
ENDBRANCH  12  13
ENDBRANCH  10  12
ENDBRANCH   1  10
BRANCH   3  21
ATOM     21  C   UNL     1     118.792 152.423 198.030  0.00  0.00    +0.000 C 
BRANCH  21  25
ATOM     22  C   UNL     1     118.639 151.976 200.157  0.00  0.00    +0.000 A 
ATOM     23  C   UNL     1     118.716 151.423 199.671  0.00  0.00    +0.000 A 
ATOM     24  C   UNL     1     118.615 152.664 199.929  0.00  0.00    +0.000 A 
ATOM     25  C   UNL     1     118.742 152.273 198.735  0.00  0.00    +0.000 A 
ATOM     26  C   UNL     1     118.666 152.822 199.208  0.00  0.00    +0.000 A 
ATOM     27  C   UNL     1     118.766 151.585 198.963  0.00  0.00    +0.000 A 
BRANCH  22  29
ATOM     28  C   UNL     1     117.970 151.577 201.166  0.00  0.00    +0.000 A 
ATOM     29  C   UNL     1     118.587 151.842 200.869  0.00  0.00    +0.000 A 
ATOM     30  C   UNL     1     117.941 151.452 201.866  0.00  0.00    +0.000 A 
ATOM     31  C   UNL     1     119.151 151.971 201.285  0.00  0.00    +0.000 A 
ATOM     32  C   UNL     1     118.505 151.582 202.282  0.00  0.00    +0.000 A 
ATOM     33  C   UNL     1     119.108 151.838 202.005  0.00  0.00    +0.000 A 
BRANCH  28  34
ATOM     34  C   UNL     1     117.456 151.459 200.787  0.00  0.00    +0.000 A 
ATOM     35  N   UNL     1     116.703 150.940 200.063  0.00  0.00    +0.000 NA
ATOM     36  N   UNL     1     117.364 150.856 200.436  0.00  0.00    +0.000 NA
ATOM     37  N   UNL     1     116.430 151.620 200.223  0.00  0.00    +0.000 NA
ATOM     38  N   UNL     1     116.950 151.937 200.703  0.00  0.00    +0.000 NA
ENDBRANCH  28  34
ENDBRANCH  22  29
ENDBRANCH  21  25
ENDBRANCH   3  21
BRANCH   5  39
ATOM     39  C   UNL     1     120.135 152.013 197.978  0.00  0.00    +0.000 C 
BRANCH  39  40
ATOM     40  C   UNL     1     120.758 151.773 197.855  0.00  0.00    +0.000 C 
ATOM     41  C   UNL     1     120.879 151.115 197.767  0.00  0.00    +0.000 C 
ENDBRANCH  39  40
ENDBRANCH   5  39
TORSDOF 11
ENDMDL
MODEL 13
REMARK VINA RESULT:      -7.9     41.858     43.149
REMARK  Name = 
REMARK  11 active torsions:
REMARK  status: ('A' for Active; 'I' for Inactive)
REMARK    1  A    between atoms: C_1  and  C_13
REMARK    2  A    between atoms: C_2  and  C_18
REMARK    3  A    between atoms: N_3  and  C_20
REMARK    4  A    between atoms: C_5  and  C_30
REMARK    5  A    between atoms: C_6  and  C_17
REMARK    6  A    between atoms: C_8  and  C_22
REMARK    7  A    between atoms: C_13  and  O_21
REMARK    8  A    between atoms: C_19  and  C_23
REMARK    9  A    between atoms: C_20  and  C_28
REMARK   10  A    between atoms: O_21  and  C_22
REMARK   11  A    between atoms: C_30  and  C_38
REMARK                            x       y       z     vdW  Elec       q    Type
REMARK                         _______ _______ _______ _____ _____    ______ ____
ROOT
ATOM      1  C   UNL     1     102.199 144.866 160.438  0.00  0.00    +0.000 A 
ATOM      2  C   UNL     1     101.986 144.689 161.089  0.00  0.00    +0.000 A 
ATOM      3  N   UNL     1     102.898 144.765 160.399  0.00  0.00    +0.000 N 
ATOM      4  N   UNL     1     102.562 144.478 161.453  0.00  0.00    +0.000 NA
ATOM      5  C   UNL     1     103.138 144.522 161.030  0.00  0.00    +0.000 A 
ENDROOT
BRANCH   2   6
ATOM      6  C   UNL     1     101.289 144.813 161.057  0.00  0.00    +0.000 C 
ATOM      7  O   UNL     1     101.038 145.381 160.710  0.00  0.00    +0.000 OA
ATOM      8  C   UNL     1     100.621 144.624 161.222  0.00  0.00    +0.000 C 
ATOM      9  C   UNL     1     101.167 144.228 161.439  0.00  0.00    +0.000 C 
ENDBRANCH   2   6
BRANCH   1  10
ATOM     10  C   UNL     1     101.914 145.102 159.850  0.00  0.00    +0.000 C 
ATOM     11  O   UNL     1     101.732 145.775 159.793  0.00  0.00    +0.000 OA
BRANCH  10  12
ATOM     12  O   UNL     1     101.814 144.667 159.332  0.00  0.00    +0.000 OA
BRANCH  12  13
ATOM     13  C   UNL     1     101.370 144.841 158.827  0.00  0.00    +0.000 C 
BRANCH  13  14
ATOM     14  C   UNL     1     101.343 144.458 158.248  0.00  0.00    +0.000 A 
ATOM     15  C   UNL     1     101.358 143.429 157.790  0.00  0.00    +0.000 A 
ATOM     16  O   UNL     1     101.391 143.756 158.400  0.00  0.00    +0.000 OA
ATOM     17  O   UNL     1     101.295 143.894 157.302  0.00  0.00    +0.000 OA
ATOM     18  C   UNL     1     101.288 144.532 157.619  0.00  0.00    +0.000 A 
ATOM     19  O   UNL     1     101.386 142.728 157.686  0.00  0.00    +0.000 OA
ATOM     20  C   UNL     1     101.232 145.173 157.338  0.00  0.00    +0.000 C 
ENDBRANCH  13  14
ENDBRANCH  12  13
ENDBRANCH  10  12
ENDBRANCH   1  10
BRANCH   3  21
ATOM     21  C   UNL     1     103.307 144.879 159.842  0.00  0.00    +0.000 C 
BRANCH  21  25
ATOM     22  C   UNL     1     104.716 146.540 159.792  0.00  0.00    +0.000 A 
ATOM     23  C   UNL     1     104.102 146.593 160.202  0.00  0.00    +0.000 A 
ATOM     24  C   UNL     1     104.850 145.940 159.408  0.00  0.00    +0.000 A 
ATOM     25  C   UNL     1     103.772 145.431 159.827  0.00  0.00    +0.000 A 
ATOM     26  C   UNL     1     104.375 145.372 159.421  0.00  0.00    +0.000 A 
ATOM     27  C   UNL     1     103.638 146.031 160.211  0.00  0.00    +0.000 A 
BRANCH  22  29
ATOM     28  C   UNL     1     105.146 147.616 159.260  0.00  0.00    +0.000 A 
ATOM     29  C   UNL     1     105.194 147.087 159.766  0.00  0.00    +0.000 A 
ATOM     30  C   UNL     1     105.626 148.141 159.253  0.00  0.00    +0.000 A 
ATOM     31  C   UNL     1     105.720 147.105 160.245  0.00  0.00    +0.000 A 
ATOM     32  C   UNL     1     106.152 148.159 159.732  0.00  0.00    +0.000 A 
ATOM     33  C   UNL     1     106.209 147.652 160.228  0.00  0.00    +0.000 A 
BRANCH  28  34
ATOM     34  C   UNL     1     104.666 147.599 158.822  0.00  0.00    +0.000 A 
ATOM     35  N   UNL     1     103.641 147.757 158.290  0.00  0.00    +0.000 NA
ATOM     36  N   UNL     1     104.038 147.901 158.925  0.00  0.00    +0.000 NA
ATOM     37  N   UNL     1     104.076 147.359 157.826  0.00  0.00    +0.000 NA
ATOM     38  N   UNL     1     104.747 147.272 158.208  0.00  0.00    +0.000 NA
ENDBRANCH  28  34
ENDBRANCH  22  29
ENDBRANCH  21  25
ENDBRANCH   3  21
BRANCH   5  39
ATOM     39  C   UNL     1     103.839 144.401 161.051  0.00  0.00    +0.000 C 
BRANCH  39  40
ATOM     40  C   UNL     1     104.079 144.055 161.584  0.00  0.00    +0.000 C 
ATOM     41  C   UNL     1     104.617 143.650 161.537  0.00  0.00    +0.000 C 
ENDBRANCH  39  40
ENDBRANCH   5  39
TORSDOF 11
ENDMDL
MODEL 14
REMARK VINA RESULT:      -7.9     89.689     91.723
REMARK  Name = 
REMARK  11 active torsions:
REMARK  status: ('A' for Active; 'I' for Inactive)
REMARK    1  A    between atoms: C_1  and  C_13
REMARK    2  A    between atoms: C_2  and  C_18
REMARK    3  A    between atoms: N_3  and  C_20
REMARK    4  A    between atoms: C_5  and  C_30
REMARK    5  A    between atoms: C_6  and  C_17
REMARK    6  A    between atoms: C_8  and  C_22
REMARK    7  A    between atoms: C_13  and  O_21
REMARK    8  A    between atoms: C_19  and  C_23
REMARK    9  A    between atoms: C_20  and  C_28
REMARK   10  A    between atoms: O_21  and  C_22
REMARK   11  A    between atoms: C_30  and  C_38
REMARK                            x       y       z     vdW  Elec       q    Type
REMARK                         _______ _______ _______ _____ _____    ______ ____
ROOT
ATOM      1  C   UNL     1     105.070 116.971 114.352  0.00  0.00    +0.000 A 
ATOM      2  C   UNL     1     105.528 116.617 113.945  0.00  0.00    +0.000 A 
ATOM      3  N   UNL     1     104.864 117.549 114.001  0.00  0.00    +0.000 N 
ATOM      4  N   UNL     1     105.602 116.984 113.338  0.00  0.00    +0.000 NA
ATOM      5  C   UNL     1     105.191 117.569 113.363  0.00  0.00    +0.000 A 
ENDROOT
BRANCH   2   6
ATOM      6  C   UNL     1     105.690 116.059 114.351  0.00  0.00    +0.000 C 
ATOM      7  O   UNL     1     105.764 116.135 115.055  0.00  0.00    +0.000 OA
ATOM      8  C   UNL     1     105.835 115.363 114.414  0.00  0.00    +0.000 C 
ATOM      9  C   UNL     1     105.699 115.643 113.777  0.00  0.00    +0.000 C 
ENDBRANCH   2   6
BRANCH   1  10
ATOM     10  C   UNL     1     104.782 116.902 114.980  0.00  0.00    +0.000 C 
ATOM     11  O   UNL     1     105.149 117.058 115.556  0.00  0.00    +0.000 OA
BRANCH  10  12
ATOM     12  O   UNL     1     104.136 116.680 115.027  0.00  0.00    +0.000 OA
BRANCH  12  13
ATOM     13  C   UNL     1     103.900 116.457 115.641  0.00  0.00    +0.000 C 
BRANCH  13  14
ATOM     14  C   UNL     1     103.226 116.308 115.714  0.00  0.00    +0.000 A 
ATOM     15  C   UNL     1     102.311 115.815 115.281  0.00  0.00    +0.000 A 
ATOM     16  O   UNL     1     102.982 115.931 115.151  0.00  0.00    +0.000 OA
ATOM     17  O   UNL     1     102.156 116.097 115.876  0.00  0.00    +0.000 OA
ATOM     18  C   UNL     1     102.750 116.401 116.126  0.00  0.00    +0.000 A 
ATOM     19  O   UNL     1     101.858 115.460 114.866  0.00  0.00    +0.000 OA
ATOM     20  C   UNL     1     102.858 116.757 116.721  0.00  0.00    +0.000 C 
ENDBRANCH  13  14
ENDBRANCH  12  13
ENDBRANCH  10  12
ENDBRANCH   1  10
BRANCH   3  21
ATOM     21  C   UNL     1     104.414 118.036 114.226  0.00  0.00    +0.000 C 
BRANCH  21  25
ATOM     22  C   UNL     1     105.100 120.028 114.780  0.00  0.00    +0.000 A 
ATOM     23  C   UNL     1     104.415 119.938 114.514  0.00  0.00    +0.000 A 
ATOM     24  C   UNL     1     105.542 119.459 114.856  0.00  0.00    +0.000 A 
ATOM     25  C   UNL     1     104.639 118.698 114.409  0.00  0.00    +0.000 A 
ATOM     26  C   UNL     1     105.315 118.780 114.670  0.00  0.00    +0.000 A 
ATOM     27  C   UNL     1     104.197 119.267 114.333  0.00  0.00    +0.000 A 
BRANCH  22  29
ATOM     28  C   UNL     1     105.223 120.964 115.638  0.00  0.00    +0.000 A 
ATOM     29  C   UNL     1     105.342 120.687 114.968  0.00  0.00    +0.000 A 
ATOM     30  C   UNL     1     105.469 121.611 115.801  0.00  0.00    +0.000 A 
ATOM     31  C   UNL     1     105.703 121.070 114.489  0.00  0.00    +0.000 A 
ATOM     32  C   UNL     1     105.830 121.994 115.321  0.00  0.00    +0.000 A 
ATOM     33  C   UNL     1     105.952 121.737 114.669  0.00  0.00    +0.000 A 
BRANCH  28  34
ATOM     34  C   UNL     1     104.894 120.614 116.076  0.00  0.00    +0.000 A 
ATOM     35  N   UNL     1     104.630 119.873 116.936  0.00  0.00    +0.000 NA
ATOM     36  N   UNL     1     105.201 120.166 116.524  0.00  0.00    +0.000 NA
ATOM     37  N   UNL     1     103.988 120.179 116.698  0.00  0.00    +0.000 NA
ATOM     38  N   UNL     1     104.197 120.664 116.129  0.00  0.00    +0.000 NA
ENDBRANCH  28  34
ENDBRANCH  22  29
ENDBRANCH  21  25
ENDBRANCH   3  21
BRANCH   5  39
ATOM     39  C   UNL     1     105.021 118.133 112.963  0.00  0.00    +0.000 C 
BRANCH  39  40
ATOM     40  C   UNL     1     105.188 118.109 112.305  0.00  0.00    +0.000 C 
ATOM     41  C   UNL     1     104.818 118.412 111.829  0.00  0.00    +0.000 C 
ENDBRANCH  39  40
ENDBRANCH   5  39
TORSDOF 11
ENDMDL
MODEL 15
REMARK VINA RESULT:      -7.8     91.341     93.040
REMARK  Name = 
REMARK  11 active torsions:
REMARK  status: ('A' for Active; 'I' for Inactive)
REMARK    1  A    between atoms: C_1  and  C_13
REMARK    2  A    between atoms: C_2  and  C_18
REMARK    3  A    between atoms: N_3  and  C_20
REMARK    4  A    between atoms: C_5  and  C_30
REMARK    5  A    between atoms: C_6  and  C_17
REMARK    6  A    between atoms: C_8  and  C_22
REMARK    7  A    between atoms: C_13  and  O_21
REMARK    8  A    between atoms: C_19  and  C_23
REMARK    9  A    between atoms: C_20  and  C_28
REMARK   10  A    between atoms: O_21  and  C_22
REMARK   11  A    between atoms: C_30  and  C_38
REMARK                            x       y       z     vdW  Elec       q    Type
REMARK                         _______ _______ _______ _____ _____    ______ ____
ROOT
ATOM      1  C   UNL     1     105.375 145.211 107.697  0.00  0.00    +0.000 A 
ATOM      2  C   UNL     1     105.707 145.836 107.694  0.00  0.00    +0.000 A 
ATOM      3  N   UNL     1     104.814 145.258 107.269  0.00  0.00    +0.000 N 
ATOM      4  N   UNL     1     105.344 146.269 107.259  0.00  0.00    +0.000 NA
ATOM      5  C   UNL     1     104.784 145.917 106.987  0.00  0.00    +0.000 A 
ENDROOT
BRANCH   2   6
ATOM      6  C   UNL     1     106.248 145.719 108.136  0.00  0.00    +0.000 C 
ATOM      7  O   UNL     1     106.588 145.094 108.134  0.00  0.00    +0.000 OA
ATOM      8  C   UNL     1     106.682 145.948 108.654  0.00  0.00    +0.000 C 
ATOM      9  C   UNL     1     106.175 146.373 108.400  0.00  0.00    +0.000 C 
ENDBRANCH   2   6
BRANCH   1  10
ATOM     10  C   UNL     1     105.451 144.590 107.998  0.00  0.00    +0.000 C 
ATOM     11  O   UNL     1     105.929 144.138 107.757  0.00  0.00    +0.000 OA
BRANCH  10  12
ATOM     12  O   UNL     1     105.054 144.428 108.530  0.00  0.00    +0.000 OA
BRANCH  12  13
ATOM     13  C   UNL     1     105.221 143.878 108.920  0.00  0.00    +0.000 C 
BRANCH  13  14
ATOM     14  C   UNL     1     104.787 143.669 109.421  0.00  0.00    +0.000 A 
ATOM     15  C   UNL     1     104.135 143.958 110.293  0.00  0.00    +0.000 A 
ATOM     16  O   UNL     1     104.560 144.227 109.815  0.00  0.00    +0.000 OA
ATOM     17  O   UNL     1     104.105 143.289 110.199  0.00  0.00    +0.000 OA
ATOM     18  C   UNL     1     104.524 143.134 109.644  0.00  0.00    +0.000 A 
ATOM     19  O   UNL     1     103.788 144.318 110.797  0.00  0.00    +0.000 OA
ATOM     20  C   UNL     1     104.666 142.515 109.345  0.00  0.00    +0.000 C 
ENDBRANCH  13  14
ENDBRANCH  12  13
ENDBRANCH  10  12
ENDBRANCH   1  10
BRANCH   3  21
ATOM     21  C   UNL     1     104.351 144.751 107.130  0.00  0.00    +0.000 C 
BRANCH  21  25
ATOM     22  C   UNL     1     104.288 143.777 105.181  0.00  0.00    +0.000 A 
ATOM     23  C   UNL     1     104.930 144.045 105.436  0.00  0.00    +0.000 A 
ATOM     24  C   UNL     1     103.683 143.837 105.576  0.00  0.00    +0.000 A 
ATOM     25  C   UNL     1     104.333 144.428 106.483  0.00  0.00    +0.000 A 
ATOM     26  C   UNL     1     103.698 144.167 106.238  0.00  0.00    +0.000 A 
ATOM     27  C   UNL     1     104.938 144.369 106.089  0.00  0.00    +0.000 A 
BRANCH  22  29
ATOM     28  C   UNL     1     104.368 142.729 104.460  0.00  0.00    +0.000 A 
ATOM     29  C   UNL     1     104.253 143.450 104.533  0.00  0.00    +0.000 A 
ATOM     30  C   UNL     1     104.328 142.430 103.816  0.00  0.00    +0.000 A 
ATOM     31  C   UNL     1     104.103 143.843 103.959  0.00  0.00    +0.000 A 
ATOM     32  C   UNL     1     104.178 142.823 103.241  0.00  0.00    +0.000 A 
ATOM     33  C   UNL     1     104.065 143.523 103.299  0.00  0.00    +0.000 A 
BRANCH  28  34
ATOM     34  C   UNL     1     104.505 142.370 104.984  0.00  0.00    +0.000 A 
ATOM     35  N   UNL     1     104.397 141.726 105.950  0.00  0.00    +0.000 NA
ATOM     36  N   UNL     1     104.012 142.105 105.411  0.00  0.00    +0.000 NA
ATOM     37  N   UNL     1     105.130 141.792 105.804  0.00  0.00    +0.000 NA
ATOM     38  N   UNL     1     105.167 142.224 105.160  0.00  0.00    +0.000 NA
ENDBRANCH  28  34
ENDBRANCH  22  29
ENDBRANCH  21  25
ENDBRANCH   3  21
BRANCH   5  39
ATOM     39  C   UNL     1     104.236 146.023 106.545  0.00  0.00    +0.000 C 
BRANCH  39  40
ATOM     40  C   UNL     1     104.085 146.666 106.386  0.00  0.00    +0.000 C 
ATOM     41  C   UNL     1     103.469 146.851 106.182  0.00  0.00    +0.000 C 
ENDBRANCH  39  40
ENDBRANCH   5  39
TORSDOF 11
ENDMDL
MODEL 16
REMARK VINA RESULT:      -7.8     48.920     51.293
REMARK  Name = 
REMARK  11 active torsions:
REMARK  status: ('A' for Active; 'I' for Inactive)
REMARK    1  A    between atoms: C_1  and  C_13
REMARK    2  A    between atoms: C_2  and  C_18
REMARK    3  A    between atoms: N_3  and  C_20
REMARK    4  A    between atoms: C_5  and  C_30
REMARK    5  A    between atoms: C_6  and  C_17
REMARK    6  A    between atoms: C_8  and  C_22
REMARK    7  A    between atoms: C_13  and  O_21
REMARK    8  A    between atoms: C_19  and  C_23
REMARK    9  A    between atoms: C_20  and  C_28
REMARK   10  A    between atoms: O_21  and  C_22
REMARK   11  A    between atoms: C_30  and  C_38
REMARK                            x       y       z     vdW  Elec       q    Type
REMARK                         _______ _______ _______ _____ _____    ______ ____
ROOT
ATOM      1  C   UNL     1     163.015 127.509 181.849  0.00  0.00    +0.000 A 
ATOM      2  C   UNL     1     163.335 127.277 181.262  0.00  0.00    +0.000 A 
ATOM      3  N   UNL     1     163.408 127.318 182.405  0.00  0.00    +0.000 N 
ATOM      4  N   UNL     1     163.931 126.940 181.463  0.00  0.00    +0.000 NA
ATOM      5  C   UNL     1     163.985 126.960 182.176  0.00  0.00    +0.000 A 
ENDROOT
BRANCH   2   6
ATOM      6  C   UNL     1     162.895 127.500 180.753  0.00  0.00    +0.000 C 
ATOM      7  O   UNL     1     162.191 127.469 180.846  0.00  0.00    +0.000 OA
ATOM      8  C   UNL     1     162.794 127.779 180.104  0.00  0.00    +0.000 C 
ATOM      9  C   UNL     1     163.451 127.668 180.346  0.00  0.00    +0.000 C 
ENDBRANCH   2   6
BRANCH   1  10
ATOM     10  C   UNL     1     162.440 127.862 182.015  0.00  0.00    +0.000 C 
ATOM     11  O   UNL     1     161.815 127.545 181.998  0.00  0.00    +0.000 OA
BRANCH  10  12
ATOM     12  O   UNL     1     162.494 128.520 182.194  0.00  0.00    +0.000 OA
BRANCH  12  13
ATOM     13  C   UNL     1     161.922 128.914 182.204  0.00  0.00    +0.000 C 
BRANCH  13  14
ATOM     14  C   UNL     1     161.957 129.560 182.456  0.00  0.00    +0.000 A 
ATOM     15  C   UNL     1     162.508 130.542 182.478  0.00  0.00    +0.000 A 
ATOM     16  O   UNL     1     162.528 129.911 182.192  0.00  0.00    +0.000 OA
ATOM     17  O   UNL     1     161.969 130.576 182.884  0.00  0.00    +0.000 OA
ATOM     18  C   UNL     1     161.640 129.945 182.852  0.00  0.00    +0.000 A 
ATOM     19  O   UNL     1     162.972 131.068 182.367  0.00  0.00    +0.000 OA
ATOM     20  C   UNL     1     161.060 129.722 183.178  0.00  0.00    +0.000 C 
ENDBRANCH  13  14
ENDBRANCH  12  13
ENDBRANCH  10  12
ENDBRANCH   1  10
BRANCH   3  21
ATOM     21  C   UNL     1     163.269 127.449 183.079  0.00  0.00    +0.000 C 
BRANCH  21  25
ATOM     22  C   UNL     1     162.669 125.858 184.442  0.00  0.00    +0.000 A 
ATOM     23  C   UNL     1     162.557 125.779 183.715  0.00  0.00    +0.000 A 
ATOM     24  C   UNL     1     162.977 126.461 184.702  0.00  0.00    +0.000 A 
ATOM     25  C   UNL     1     163.069 126.920 183.529  0.00  0.00    +0.000 A 
ATOM     26  C   UNL     1     163.183 127.005 184.244  0.00  0.00    +0.000 A 
ATOM     27  C   UNL     1     162.761 126.318 183.269  0.00  0.00    +0.000 A 
BRANCH  22  29
ATOM     28  C   UNL     1     161.794 125.300 185.182  0.00  0.00    +0.000 A 
ATOM     29  C   UNL     1     162.474 125.336 184.908  0.00  0.00    +0.000 A 
ATOM     30  C   UNL     1     161.625 124.779 185.637  0.00  0.00    +0.000 A 
ATOM     31  C   UNL     1     162.958 124.850 185.100  0.00  0.00    +0.000 A 
ATOM     32  C   UNL     1     162.109 124.293 185.829  0.00  0.00    +0.000 A 
ATOM     33  C   UNL     1     162.771 124.318 185.570  0.00  0.00    +0.000 A 
BRANCH  28  34
ATOM     34  C   UNL     1     161.353 125.743 185.006  0.00  0.00    +0.000 A 
ATOM     35  N   UNL     1     160.718 126.720 184.953  0.00  0.00    +0.000 NA
ATOM     36  N   UNL     1     161.292 126.372 185.316  0.00  0.00    +0.000 NA
ATOM     37  N   UNL     1     160.460 126.254 184.424  0.00  0.00    +0.000 NA
ATOM     38  N   UNL     1     160.901 125.618 184.486  0.00  0.00    +0.000 NA
ENDBRANCH  28  34
ENDBRANCH  22  29
ENDBRANCH  21  25
ENDBRANCH   3  21
BRANCH   5  39
ATOM     39  C   UNL     1     164.420 126.741 182.695  0.00  0.00    +0.000 C 
BRANCH  39  40
ATOM     40  C   UNL     1     165.061 126.594 182.523  0.00  0.00    +0.000 C 
ATOM     41  C   UNL     1     165.545 126.501 182.984  0.00  0.00    +0.000 C 
ENDBRANCH  39  40
ENDBRANCH   5  39
TORSDOF 11
ENDMDL
