MODEL 1
REMARK VINA RESULT:      -7.9      0.000      0.000
REMARK  Name = 
REMARK  1 active torsions:
REMARK  status: ('A' for Active; 'I' for Inactive)
REMARK    1  A    between atoms: C_2  and  N_3
REMARK                            x       y       z     vdW  Elec       q    Type
REMARK                         _______ _______ _______ _____ _____    ______ ____
ROOT
ATOM      1  C   UNL     1     124.705 150.762 185.774  0.00  0.00    +0.000 A 
ATOM      2  C   UNL     1     124.391 150.719 185.138  0.00  0.00    +0.000 A 
ATOM      3  C   UNL     1     124.429 150.405 186.331  0.00  0.00    +0.000 A 
ATOM      4 CL   UNL     1     124.754 150.455 186.971  0.00  0.00    +0.000 Cl
ATOM      5 CL   UNL     1     124.666 151.077 184.577  0.00  0.00    +0.000 Cl
ATOM      6  C   UNL     1     123.544 149.977 185.604  0.00  0.00    +0.000 A 
ATOM      7  C   UNL     1     123.843 150.009 186.245  0.00  0.00    +0.000 A 
ATOM      8  C   UNL     1     123.805 150.322 185.052  0.00  0.00    +0.000 A 
ENDROOT
BRANCH   1  10
ATOM      9  C   UNL     1     125.230 151.844 186.018  0.00  0.00    +0.000 C 
ATOM     10  N   UNL     1     125.294 151.161 185.860  0.00  0.00    +0.000 NA
ATOM     11  N   UNL     1     124.676 152.259 186.118  0.00  0.00    +0.000 NA
ATOM     12  N   UNL     1     125.815 152.240 186.103  0.00  0.00    +0.000 NA
ATOM     13  C   UNL     1     124.913 152.909 186.266  0.00  0.00    +0.000 C 
ATOM     14  C   UNL     1     125.610 152.901 186.257  0.00  0.00    +0.000 C 
ENDBRANCH   1  10
TORSDOF 1
ENDMDL
MODEL 2
REMARK VINA RESULT:      -7.7     28.033     28.560
REMARK  Name = 
REMARK  1 active torsions:
REMARK  status: ('A' for Active; 'I' for Inactive)
REMARK    1  A    between atoms: C_2  and  N_3
REMARK                            x       y       z     vdW  Elec       q    Type
REMARK                         _______ _______ _______ _____ _____    ______ ____
ROOT
ATOM      1  C   UNL     1     141.551 128.101 186.338  0.00  0.00    +0.000 A 
ATOM      2  C   UNL     1     142.100 127.665 186.445  0.00  0.00    +0.000 A 
ATOM      3  C   UNL     1     141.398 128.606 186.823  0.00  0.00    +0.000 A 
ATOM      4 CL   UNL     1     140.839 129.044 186.706  0.00  0.00    +0.000 Cl
ATOM      5 CL   UNL     1     142.255 127.157 185.959  0.00  0.00    +0.000 Cl
ATOM      6  C   UNL     1     142.341 128.224 187.501  0.00  0.00    +0.000 A 
ATOM      7  C   UNL     1     141.797 128.669 187.410  0.00  0.00    +0.000 A 
ATOM      8  C   UNL     1     142.499 127.727 187.033  0.00  0.00    +0.000 A 
ENDROOT
BRANCH   1  10
ATOM      9  C   UNL     1     141.335 128.388 185.164  0.00  0.00    +0.000 C 
ATOM     10  N   UNL     1     141.149 128.039 185.747  0.00  0.00    +0.000 NA
ATOM     11  N   UNL     1     141.866 128.818 185.017  0.00  0.00    +0.000 NA
ATOM     12  N   UNL     1     140.936 128.326 184.578  0.00  0.00    +0.000 NA
ATOM     13  C   UNL     1     141.799 129.023 184.342  0.00  0.00    +0.000 C 
ATOM     14  C   UNL     1     141.232 128.724 184.071  0.00  0.00    +0.000 C 
ENDBRANCH   1  10
TORSDOF 1
ENDMDL
MODEL 3
REMARK VINA RESULT:      -7.5     56.971     57.536
REMARK  Name = 
REMARK  1 active torsions:
REMARK  status: ('A' for Active; 'I' for Inactive)
REMARK    1  A    between atoms: C_2  and  N_3
REMARK                            x       y       z     vdW  Elec       q    Type
REMARK                         _______ _______ _______ _____ _____    ______ ____
ROOT
ATOM      1  C   UNL     1     108.447 129.884 135.102  0.00  0.00    +0.000 A 
ATOM      2  C   UNL     1     107.845 129.998 135.459  0.00  0.00    +0.000 A 
ATOM      3  C   UNL     1     108.464 129.981 134.392  0.00  0.00    +0.000 A 
ATOM      4 CL   UNL     1     109.079 129.863 134.038  0.00  0.00    +0.000 Cl
ATOM      5 CL   UNL     1     107.826 129.902 136.173  0.00  0.00    +0.000 Cl
ATOM      6  C   UNL     1     107.283 130.300 134.420  0.00  0.00    +0.000 A 
ATOM      7  C   UNL     1     107.876 130.191 134.047  0.00  0.00    +0.000 A 
ATOM      8  C   UNL     1     107.257 130.208 135.115  0.00  0.00    +0.000 A 
ENDROOT
BRANCH   1  10
ATOM      9  C   UNL     1     109.160 128.986 135.537  0.00  0.00    +0.000 C 
ATOM     10  N   UNL     1     109.039 129.673 135.448  0.00  0.00    +0.000 NA
ATOM     11  N   UNL     1     108.807 128.412 135.350  0.00  0.00    +0.000 NA
ATOM     12  N   UNL     1     109.747 128.776 135.881  0.00  0.00    +0.000 NA
ATOM     13  C   UNL     1     109.171 127.848 135.575  0.00  0.00    +0.000 C 
ATOM     14  C   UNL     1     109.746 128.067 135.900  0.00  0.00    +0.000 C 
ENDBRANCH   1  10
TORSDOF 1
ENDMDL
MODEL 4
REMARK VINA RESULT:      -7.4     24.433     25.191
REMARK  Name = 
REMARK  1 active torsions:
REMARK  status: ('A' for Active; 'I' for Inactive)
REMARK    1  A    between atoms: C_2  and  N_3
REMARK                            x       y       z     vdW  Elec       q    Type
REMARK                         _______ _______ _______ _____ _____    ______ ____
ROOT
ATOM      1  C   UNL     1     121.726 125.998 184.023  0.00  0.00    +0.000 A 
ATOM      2  C   UNL     1     121.017 125.958 183.998  0.00  0.00    +0.000 A 
ATOM      3  C   UNL     1     122.050 126.177 184.637  0.00  0.00    +0.000 A 
ATOM      4 CL   UNL     1     122.768 126.214 184.654  0.00  0.00    +0.000 Cl
ATOM      5 CL   UNL     1     120.690 125.779 183.382  0.00  0.00    +0.000 Cl
ATOM      6  C   UNL     1     120.955 126.269 185.175  0.00  0.00    +0.000 A 
ATOM      7  C   UNL     1     121.661 126.313 185.219  0.00  0.00    +0.000 A 
ATOM      8  C   UNL     1     120.628 126.095 184.579  0.00  0.00    +0.000 A 
ENDROOT
BRANCH   1  10
ATOM      9  C   UNL     1     122.277 126.385 182.997  0.00  0.00    +0.000 C 
ATOM     10  N   UNL     1     122.117 125.861 183.438  0.00  0.00    +0.000 NA
ATOM     11  N   UNL     1     122.129 127.069 182.999  0.00  0.00    +0.000 NA
ATOM     12  N   UNL     1     122.665 126.249 182.417  0.00  0.00    +0.000 NA
ATOM     13  C   UNL     1     122.423 127.357 182.423  0.00  0.00    +0.000 C 
ATOM     14  C   UNL     1     122.752 126.858 182.065  0.00  0.00    +0.000 C 
ENDBRANCH   1  10
TORSDOF 1
ENDMDL
MODEL 5
REMARK VINA RESULT:      -7.1     83.153     84.087
REMARK  Name = 
REMARK  1 active torsions:
REMARK  status: ('A' for Active; 'I' for Inactive)
REMARK    1  A    between atoms: C_2  and  N_3
REMARK                            x       y       z     vdW  Elec       q    Type
REMARK                         _______ _______ _______ _____ _____    ______ ____
ROOT
ATOM      1  C   UNL     1     117.329 113.092 111.255  0.00  0.00    +0.000 A 
ATOM      2  C   UNL     1     117.261 113.101 110.549  0.00  0.00    +0.000 A 
ATOM      3  C   UNL     1     117.800 112.646 111.562  0.00  0.00    +0.000 A 
ATOM      4 CL   UNL     1     117.862 112.644 112.278  0.00  0.00    +0.000 Cl
ATOM      5 CL   UNL     1     116.789 113.547 110.239  0.00  0.00    +0.000 Cl
ATOM      6  C   UNL     1     118.116 112.237 110.453  0.00  0.00    +0.000 A 
ATOM      7  C   UNL     1     118.197 112.214 111.157  0.00  0.00    +0.000 A 
ATOM      8  C   UNL     1     117.658 112.669 110.144  0.00  0.00    +0.000 A 
ENDROOT
BRANCH   1  10
ATOM      9  C   UNL     1     116.302 113.305 111.891  0.00  0.00    +0.000 C 
ATOM     10  N   UNL     1     116.930 113.526 111.662  0.00  0.00    +0.000 NA
ATOM     11  N   UNL     1     115.948 112.708 111.805  0.00  0.00    +0.000 NA
ATOM     12  N   UNL     1     115.905 113.736 112.296  0.00  0.00    +0.000 NA
ATOM     13  C   UNL     1     115.334 112.766 112.154  0.00  0.00    +0.000 C 
ATOM     14  C   UNL     1     115.305 113.393 112.455  0.00  0.00    +0.000 C 
ENDBRANCH   1  10
TORSDOF 1
ENDMDL
MODEL 6
REMARK VINA RESULT:      -6.9     84.186     84.904
REMARK  Name = 
REMARK  1 active torsions:
REMARK  status: ('A' for Active; 'I' for Inactive)
REMARK    1  A    between atoms: C_2  and  N_3
REMARK                            x       y       z     vdW  Elec       q    Type
REMARK                         _______ _______ _______ _____ _____    ______ ____
ROOT
ATOM      1  C   UNL     1     129.571 148.123 100.833  0.00  0.00    +0.000 A 
ATOM      2  C   UNL     1     129.500 147.418 100.792  0.00  0.00    +0.000 A 
ATOM      3  C   UNL     1     130.209 148.408 100.996  0.00  0.00    +0.000 A 
ATOM      4 CL   UNL     1     130.271 149.123 101.035  0.00  0.00    +0.000 Cl
ATOM      5 CL   UNL     1     128.861 147.131 100.629  0.00  0.00    +0.000 Cl
ATOM      6  C   UNL     1     130.679 147.281 101.072  0.00  0.00    +0.000 A 
ATOM      7  C   UNL     1     130.768 147.983 101.117  0.00  0.00    +0.000 A 
ATOM      8  C   UNL     1     130.060 146.993 100.913  0.00  0.00    +0.000 A 
ENDROOT
BRANCH   1  10
ATOM      9  C   UNL     1     128.594 148.739 101.248  0.00  0.00    +0.000 C 
ATOM     10  N   UNL     1     129.009 148.551 100.711  0.00  0.00    +0.000 NA
ATOM     11  N   UNL     1     128.606 148.592 101.932  0.00  0.00    +0.000 NA
ATOM     12  N   UNL     1     128.036 149.164 101.127  0.00  0.00    +0.000 NA
ATOM     13  C   UNL     1     128.059 148.922 102.235  0.00  0.00    +0.000 C 
ATOM     14  C   UNL     1     127.708 149.273 101.746  0.00  0.00    +0.000 C 
ENDBRANCH   1  10
TORSDOF 1
ENDMDL
MODEL 7
REMARK VINA RESULT:      -6.9     28.036     28.504
REMARK  Name = 
REMARK  1 active torsions:
REMARK  status: ('A' for Active; 'I' for Inactive)
REMARK    1  A    between atoms: C_2  and  N_3
REMARK                            x       y       z     vdW  Elec       q    Type
REMARK                         _______ _______ _______ _____ _____    ______ ____
ROOT
ATOM      1  C   UNL     1     141.336 127.649 184.400  0.00  0.00    +0.000 A 
ATOM      2  C   UNL     1     140.823 127.232 184.143  0.00  0.00    +0.000 A 
ATOM      3  C   UNL     1     141.835 127.373 184.834  0.00  0.00    +0.000 A 
ATOM      4 CL   UNL     1     142.351 127.804 185.090  0.00  0.00    +0.000 Cl
ATOM      5 CL   UNL     1     140.320 127.507 183.707  0.00  0.00    +0.000 Cl
ATOM      6  C   UNL     1     141.295 126.280 184.741  0.00  0.00    +0.000 A 
ATOM      7  C   UNL     1     141.815 126.682 185.006  0.00  0.00    +0.000 A 
ATOM      8  C   UNL     1     140.802 126.540 184.315  0.00  0.00    +0.000 A 
ENDROOT
BRANCH   1  10
ATOM      9  C   UNL     1     141.015 128.812 184.629  0.00  0.00    +0.000 C 
ATOM     10  N   UNL     1     141.357 128.345 184.227  0.00  0.00    +0.000 NA
ATOM     11  N   UNL     1     140.628 128.747 185.207  0.00  0.00    +0.000 NA
ATOM     12  N   UNL     1     141.036 129.502 184.457  0.00  0.00    +0.000 NA
ATOM     13  C   UNL     1     140.408 129.393 185.395  0.00  0.00    +0.000 C 
ATOM     14  C   UNL     1     140.655 129.857 184.939  0.00  0.00    +0.000 C 
ENDBRANCH   1  10
TORSDOF 1
ENDMDL
MODEL 8
REMARK VINA RESULT:      -6.9     40.385     41.333
REMARK  Name = 
REMARK  1 active torsions:
REMARK  status: ('A' for Active; 'I' for Inactive)
REMARK    1  A    between atoms: C_2  and  N_3
REMARK                            x       y       z     vdW  Elec       q    Type
REMARK                         _______ _______ _______ _____ _____    ______ ____
ROOT
ATOM      1  C   UNL     1     126.722 110.752 195.004  0.00  0.00    +0.000 A 
ATOM      2  C   UNL     1     126.272 110.466 195.473  0.00  0.00    +0.000 A 
ATOM      3  C   UNL     1     127.237 110.347 194.714  0.00  0.00    +0.000 A 
ATOM      4 CL   UNL     1     127.689 110.645 194.240  0.00  0.00    +0.000 Cl
ATOM      5 CL   UNL     1     125.753 110.871 195.766  0.00  0.00    +0.000 Cl
ATOM      6  C   UNL     1     126.839 109.392 195.366  0.00  0.00    +0.000 A 
ATOM      7  C   UNL     1     127.296 109.661 194.896  0.00  0.00    +0.000 A 
ATOM      8  C   UNL     1     126.331 109.780 195.656  0.00  0.00    +0.000 A 
ENDROOT
BRANCH   1  10
ATOM      9  C   UNL     1     126.235 111.624 194.291  0.00  0.00    +0.000 C 
ATOM     10  N   UNL     1     126.662 111.442 194.820  0.00  0.00    +0.000 NA
ATOM     11  N   UNL     1     125.820 111.254 193.867  0.00  0.00    +0.000 NA
ATOM     12  N   UNL     1     126.177 112.310 194.109  0.00  0.00    +0.000 NA
ATOM     13  C   UNL     1     125.504 111.706 193.423  0.00  0.00    +0.000 C 
ATOM     14  C   UNL     1     125.720 112.352 193.568  0.00  0.00    +0.000 C 
ENDBRANCH   1  10
TORSDOF 1
ENDMDL
MODEL 9
REMARK VINA RESULT:      -6.9     41.311     42.015
REMARK  Name = 
REMARK  1 active torsions:
REMARK  status: ('A' for Active; 'I' for Inactive)
REMARK    1  A    between atoms: C_2  and  N_3
REMARK                            x       y       z     vdW  Elec       q    Type
REMARK                         _______ _______ _______ _____ _____    ______ ____
ROOT
ATOM      1  C   UNL     1     126.980 110.086 194.285  0.00  0.00    +0.000 A 
ATOM      2  C   UNL     1     126.665 110.712 194.172  0.00  0.00    +0.000 A 
ATOM      3  C   UNL     1     126.932 109.775 194.929  0.00  0.00    +0.000 A 
ATOM      4 CL   UNL     1     127.254 109.141 195.035  0.00  0.00    +0.000 Cl
ATOM      5 CL   UNL     1     126.712 111.026 193.525  0.00  0.00    +0.000 Cl
ATOM      6  C   UNL     1     126.260 110.720 195.322  0.00  0.00    +0.000 A 
ATOM      7  C   UNL     1     126.569 110.095 195.453  0.00  0.00    +0.000 A 
ATOM      8  C   UNL     1     126.301 111.032 194.695  0.00  0.00    +0.000 A 
ENDROOT
BRANCH   1  10
ATOM      9  C   UNL     1     128.030 109.904 193.677  0.00  0.00    +0.000 C 
ATOM     10  N   UNL     1     127.345 109.764 193.759  0.00  0.00    +0.000 NA
ATOM     11  N   UNL     1     128.474 110.320 194.022  0.00  0.00    +0.000 NA
ATOM     12  N   UNL     1     128.393 109.585 193.155  0.00  0.00    +0.000 NA
ATOM     13  C   UNL     1     129.110 110.261 193.716  0.00  0.00    +0.000 C 
ATOM     14  C   UNL     1     129.064 109.812 193.186  0.00  0.00    +0.000 C 
ENDBRANCH   1  10
TORSDOF 1
ENDMDL
MODEL 10
REMARK VINA RESULT:      -6.8     57.533     58.308
REMARK  Name = 
REMARK  1 active torsions:
REMARK  status: ('A' for Active; 'I' for Inactive)
REMARK    1  A    between atoms: C_2  and  N_3
REMARK                            x       y       z     vdW  Elec       q    Type
REMARK                         _______ _______ _______ _____ _____    ______ ____
ROOT
ATOM      1  C   UNL     1     107.666 129.183 134.343  0.00  0.00    +0.000 A 
ATOM      2  C   UNL     1     108.299 128.896 134.200  0.00  0.00    +0.000 A 
ATOM      3  C   UNL     1     107.581 129.894 134.308  0.00  0.00    +0.000 A 
ATOM      4 CL   UNL     1     106.936 130.175 134.454  0.00  0.00    +0.000 Cl
ATOM      5 CL   UNL     1     108.386 128.182 134.235  0.00  0.00    +0.000 Cl
ATOM      6  C   UNL     1     108.757 130.006 133.991  0.00  0.00    +0.000 A 
ATOM      7  C   UNL     1     108.132 130.309 134.130  0.00  0.00    +0.000 A 
ATOM      8  C   UNL     1     108.850 129.312 134.022  0.00  0.00    +0.000 A 
ENDROOT
BRANCH   1  10
ATOM      9  C   UNL     1     107.001 128.608 135.199  0.00  0.00    +0.000 C 
ATOM     10  N   UNL     1     107.111 128.764 134.522  0.00  0.00    +0.000 NA
ATOM     11  N   UNL     1     107.336 128.781 135.788  0.00  0.00    +0.000 NA
ATOM     12  N   UNL     1     106.450 128.192 135.377  0.00  0.00    +0.000 NA
ATOM     13  C   UNL     1     106.997 128.475 136.330  0.00  0.00    +0.000 C 
ATOM     14  C   UNL     1     106.455 128.115 136.082  0.00  0.00    +0.000 C 
ENDBRANCH   1  10
TORSDOF 1
ENDMDL
MODEL 11
REMARK VINA RESULT:      -6.7    102.133    102.797
REMARK  Name = 
REMARK  1 active torsions:
REMARK  status: ('A' for Active; 'I' for Inactive)
REMARK    1  A    between atoms: C_2  and  N_3
REMARK                            x       y       z     vdW  Elec       q    Type
REMARK                         _______ _______ _______ _____ _____    ______ ____
ROOT
ATOM      1  C   UNL     1     134.472 155.594  83.535  0.00  0.00    +0.000 A 
ATOM      2  C   UNL     1     135.159 155.615  83.355  0.00  0.00    +0.000 A 
ATOM      3  C   UNL     1     133.973 155.786  83.058  0.00  0.00    +0.000 A 
ATOM      4 CL   UNL     1     133.281 155.761  83.249  0.00  0.00    +0.000 Cl
ATOM      5 CL   UNL     1     135.662 155.422  83.833  0.00  0.00    +0.000 Cl
ATOM      6  C   UNL     1     134.856 156.013  82.243  0.00  0.00    +0.000 A 
ATOM      7  C   UNL     1     134.167 155.998  82.405  0.00  0.00    +0.000 A 
ATOM      8  C   UNL     1     135.353 155.827  82.702  0.00  0.00    +0.000 A 
ENDROOT
BRANCH   1  10
ATOM      9  C   UNL     1     134.154 154.698  84.311  0.00  0.00    +0.000 C 
ATOM     10  N   UNL     1     134.277 155.381  84.191  0.00  0.00    +0.000 NA
ATOM     11  N   UNL     1     134.180 154.131  83.902  0.00  0.00    +0.000 NA
ATOM     12  N   UNL     1     133.960 154.486  84.963  0.00  0.00    +0.000 NA
ATOM     13  C   UNL     1     134.004 153.570  84.295  0.00  0.00    +0.000 C 
ATOM     14  C   UNL     1     133.869 153.784  84.944  0.00  0.00    +0.000 C 
ENDBRANCH   1  10
TORSDOF 1
ENDMDL
MODEL 12
REMARK VINA RESULT:      -6.6     51.223     51.867
REMARK  Name = 
REMARK  1 active torsions:
REMARK  status: ('A' for Active; 'I' for Inactive)
REMARK    1  A    between atoms: C_2  and  N_3
REMARK                            x       y       z     vdW  Elec       q    Type
REMARK                         _______ _______ _______ _____ _____    ______ ____
ROOT
ATOM      1  C   UNL     1     146.788 104.960 193.237  0.00  0.00    +0.000 A 
ATOM      2  C   UNL     1     146.923 105.285 193.854  0.00  0.00    +0.000 A 
ATOM      3  C   UNL     1     146.689 104.250 193.223  0.00  0.00    +0.000 A 
ATOM      4 CL   UNL     1     146.553 103.930 192.594  0.00  0.00    +0.000 Cl
ATOM      5 CL   UNL     1     147.023 105.998 193.870  0.00  0.00    +0.000 Cl
ATOM      6  C   UNL     1     146.860 104.214 194.434  0.00  0.00    +0.000 A 
ATOM      7  C   UNL     1     146.725 103.874 193.828  0.00  0.00    +0.000 A 
ATOM      8  C   UNL     1     146.959 104.908 194.458  0.00  0.00    +0.000 A 
ENDROOT
BRANCH   1  10
ATOM      9  C   UNL     1     147.335 105.438 192.248  0.00  0.00    +0.000 C 
ATOM     10  N   UNL     1     146.752 105.338 192.629  0.00  0.00    +0.000 NA
ATOM     11  N   UNL     1     147.999 105.236 192.334  0.00  0.00    +0.000 NA
ATOM     12  N   UNL     1     147.299 105.814 191.645  0.00  0.00    +0.000 NA
ATOM     13  C   UNL     1     148.375 105.483 191.787  0.00  0.00    +0.000 C 
ATOM     14  C   UNL     1     147.950 105.837 191.364  0.00  0.00    +0.000 C 
ENDBRANCH   1  10
TORSDOF 1
ENDMDL
MODEL 13
REMARK VINA RESULT:      -6.5     27.262     27.614
REMARK  Name = 
REMARK  1 active torsions:
REMARK  status: ('A' for Active; 'I' for Inactive)
REMARK    1  A    between atoms: C_2  and  N_3
REMARK                            x       y       z     vdW  Elec       q    Type
REMARK                         _______ _______ _______ _____ _____    ______ ____
ROOT
ATOM      1  C   UNL     1     149.978 139.656 189.093  0.00  0.00    +0.000 A 
ATOM      2  C   UNL     1     150.536 139.681 188.654  0.00  0.00    +0.000 A 
ATOM      3  C   UNL     1     149.764 139.027 189.362  0.00  0.00    +0.000 A 
ATOM      4 CL   UNL     1     149.199 139.013 189.806  0.00  0.00    +0.000 Cl
ATOM      5 CL   UNL     1     150.752 140.312 188.382  0.00  0.00    +0.000 Cl
ATOM      6  C   UNL     1     150.666 138.472 188.750  0.00  0.00    +0.000 A 
ATOM      7  C   UNL     1     150.112 138.429 189.189  0.00  0.00    +0.000 A 
ATOM      8  C   UNL     1     150.883 139.082 188.481  0.00  0.00    +0.000 A 
ENDROOT
BRANCH   1  10
ATOM      9  C   UNL     1     149.096 140.478 188.862  0.00  0.00    +0.000 C 
ATOM     10  N   UNL     1     149.629 140.258 189.267  0.00  0.00    +0.000 NA
ATOM     11  N   UNL     1     148.805 140.223 188.280  0.00  0.00    +0.000 NA
ATOM     12  N   UNL     1     148.749 141.075 189.035  0.00  0.00    +0.000 NA
ATOM     13  C   UNL     1     148.279 140.658 188.091  0.00  0.00    +0.000 C 
ATOM     14  C   UNL     1     148.243 141.180 188.550  0.00  0.00    +0.000 C 
ENDBRANCH   1  10
TORSDOF 1
ENDMDL
MODEL 14
REMARK VINA RESULT:      -6.5     68.923     69.802
REMARK  Name = 
REMARK  1 active torsions:
REMARK  status: ('A' for Active; 'I' for Inactive)
REMARK    1  A    between atoms: C_2  and  N_3
REMARK                            x       y       z     vdW  Elec       q    Type
REMARK                         _______ _______ _______ _____ _____    ______ ____
ROOT
ATOM      1  C   UNL     1     122.433 132.898 118.135  0.00  0.00    +0.000 A 
ATOM      2  C   UNL     1     122.784 132.281 118.112  0.00  0.00    +0.000 A 
ATOM      3  C   UNL     1     122.763 133.502 117.938  0.00  0.00    +0.000 A 
ATOM      4 CL   UNL     1     122.400 134.122 117.964  0.00  0.00    +0.000 Cl
ATOM      5 CL   UNL     1     122.453 131.672 118.310  0.00  0.00    +0.000 Cl
ATOM      6  C   UNL     1     123.777 132.859 117.704  0.00  0.00    +0.000 A 
ATOM      7  C   UNL     1     123.442 133.483 117.720  0.00  0.00    +0.000 A 
ATOM      8  C   UNL     1     123.462 132.261 117.895  0.00  0.00    +0.000 A 
ENDROOT
BRANCH   1  10
ATOM      9  C   UNL     1     121.609 133.009 119.037  0.00  0.00    +0.000 C 
ATOM     10  N   UNL     1     121.750 132.918 118.354  0.00  0.00    +0.000 NA
ATOM     11  N   UNL     1     122.015 133.091 119.600  0.00  0.00    +0.000 NA
ATOM     12  N   UNL     1     120.931 133.028 119.254  0.00  0.00    +0.000 NA
ATOM     13  C   UNL     1     121.594 133.162 120.165  0.00  0.00    +0.000 C 
ATOM     14  C   UNL     1     120.931 133.124 119.957  0.00  0.00    +0.000 C 
ENDBRANCH   1  10
TORSDOF 1
ENDMDL
MODEL 15
REMARK VINA RESULT:      -6.3     24.544     24.899
REMARK  Name = 
REMARK  1 active torsions:
REMARK  status: ('A' for Active; 'I' for Inactive)
REMARK    1  A    between atoms: C_2  and  N_3
REMARK                            x       y       z     vdW  Elec       q    Type
REMARK                         _______ _______ _______ _____ _____    ______ ____
ROOT
ATOM      1  C   UNL     1     129.755 127.443 189.839  0.00  0.00    +0.000 A 
ATOM      2  C   UNL     1     129.558 127.239 189.188  0.00  0.00    +0.000 A 
ATOM      3  C   UNL     1     130.417 127.297 190.072  0.00  0.00    +0.000 A 
ATOM      4 CL   UNL     1     130.608 127.508 190.733  0.00  0.00    +0.000 Cl
ATOM      5 CL   UNL     1     128.894 127.385 188.952  0.00  0.00    +0.000 Cl
ATOM      6  C   UNL     1     130.661 126.752 189.005  0.00  0.00    +0.000 A 
ATOM      7  C   UNL     1     130.874 126.948 189.651  0.00  0.00    +0.000 A 
ATOM      8  C   UNL     1     130.015 126.890 188.767  0.00  0.00    +0.000 A 
ENDROOT
BRANCH   1  10
ATOM      9  C   UNL     1     128.866 127.429 190.684  0.00  0.00    +0.000 C 
ATOM     10  N   UNL     1     129.295 127.794 190.262  0.00  0.00    +0.000 NA
ATOM     11  N   UNL     1     128.777 126.745 190.795  0.00  0.00    +0.000 NA
ATOM     12  N   UNL     1     128.409 127.778 191.105  0.00  0.00    +0.000 NA
ATOM     13  C   UNL     1     128.268 126.666 191.281  0.00  0.00    +0.000 C 
ATOM     14  C   UNL     1     128.042 127.296 191.473  0.00  0.00    +0.000 C 
ENDBRANCH   1  10
TORSDOF 1
ENDMDL
MODEL 16
REMARK VINA RESULT:      -6.3     51.452     52.135
REMARK  Name = 
REMARK  1 active torsions:
REMARK  status: ('A' for Active; 'I' for Inactive)
REMARK    1  A    between atoms: C_2  and  N_3
REMARK                            x       y       z     vdW  Elec       q    Type
REMARK                         _______ _______ _______ _____ _____    ______ ____
ROOT
ATOM      1  C   UNL     1     147.350 104.828 192.388  0.00  0.00    +0.000 A 
ATOM      2  C   UNL     1     148.019 104.648 192.233  0.00  0.00    +0.000 A 
ATOM      3  C   UNL     1     147.104 105.475 192.203  0.00  0.00    +0.000 A 
ATOM      4 CL   UNL     1     146.425 105.649 192.365  0.00  0.00    +0.000 Cl
ATOM      5 CL   UNL     1     148.268 103.998 192.418  0.00  0.00    +0.000 Cl
ATOM      6  C   UNL     1     148.196 105.739 191.718  0.00  0.00    +0.000 A 
ATOM      7  C   UNL     1     147.531 105.935 191.865  0.00  0.00    +0.000 A 
ATOM      8  C   UNL     1     148.446 105.108 191.895  0.00  0.00    +0.000 A 
ENDROOT
BRANCH   1  10
ATOM      9  C   UNL     1     146.887 104.377 193.431  0.00  0.00    +0.000 C 
ATOM     10  N   UNL     1     146.921 104.365 192.728  0.00  0.00    +0.000 NA
ATOM     11  N   UNL     1     147.202 104.771 193.916  0.00  0.00    +0.000 NA
ATOM     12  N   UNL     1     146.460 103.918 193.769  0.00  0.00    +0.000 NA
ATOM     13  C   UNL     1     146.975 104.558 194.552  0.00  0.00    +0.000 C 
ATOM     14  C   UNL     1     146.521 104.037 194.465  0.00  0.00    +0.000 C 
ENDBRANCH   1  10
TORSDOF 1
ENDMDL
MODEL 17
REMARK VINA RESULT:      -6.2     30.902     31.306
REMARK  Name = 
REMARK  1 active torsions:
REMARK  status: ('A' for Active; 'I' for Inactive)
REMARK    1  A    between atoms: C_2  and  N_3
REMARK                            x       y       z     vdW  Elec       q    Type
REMARK                         _______ _______ _______ _____ _____    ______ ____
ROOT
ATOM      1  C   UNL     1     148.392 133.749 176.633  0.00  0.00    +0.000 A 
ATOM      2  C   UNL     1     148.632 134.413 176.703  0.00  0.00    +0.000 A 
ATOM      3  C   UNL     1     148.514 133.270 177.153  0.00  0.00    +0.000 A 
ATOM      4 CL   UNL     1     148.267 132.599 177.074  0.00  0.00    +0.000 Cl
ATOM      5 CL   UNL     1     148.510 134.896 176.182  0.00  0.00    +0.000 Cl
ATOM      6  C   UNL     1     149.106 134.130 177.790  0.00  0.00    +0.000 A 
ATOM      7  C   UNL     1     148.874 133.463 177.737  0.00  0.00    +0.000 A 
ATOM      8  C   UNL     1     148.992 134.606 177.288  0.00  0.00    +0.000 A 
ENDROOT
BRANCH   1  10
ATOM      9  C   UNL     1     148.381 133.310 175.488  0.00  0.00    +0.000 C 
ATOM     10  N   UNL     1     148.029 133.555 176.046  0.00  0.00    +0.000 NA
ATOM     11  N   UNL     1     149.061 133.202 175.364  0.00  0.00    +0.000 NA
ATOM     12  N   UNL     1     148.021 133.117 174.904  0.00  0.00    +0.000 NA
ATOM     13  C   UNL     1     149.125 132.945 174.707  0.00  0.00    +0.000 C 
ATOM     14  C   UNL     1     148.491 132.891 174.424  0.00  0.00    +0.000 C 
ENDBRANCH   1  10
TORSDOF 1
ENDMDL
MODEL 18
REMARK VINA RESULT:      -6.2     26.883     27.367
REMARK  Name = 
REMARK  1 active torsions:
REMARK  status: ('A' for Active; 'I' for Inactive)
REMARK    1  A    between atoms: C_2  and  N_3
REMARK                            x       y       z     vdW  Elec       q    Type
REMARK                         _______ _______ _______ _____ _____    ______ ____
ROOT
ATOM      1  C   UNL     1     127.462 124.640 181.176  0.00  0.00    +0.000 A 
ATOM      2  C   UNL     1     127.009 124.113 181.030  0.00  0.00    +0.000 A 
ATOM      3  C   UNL     1     127.801 124.976 180.640  0.00  0.00    +0.000 A 
ATOM      4 CL   UNL     1     128.258 125.508 180.797  0.00  0.00    +0.000 Cl
ATOM      5 CL   UNL     1     126.668 123.774 181.567  0.00  0.00    +0.000 Cl
ATOM      6  C   UNL     1     127.227 124.252 179.839  0.00  0.00    +0.000 A 
ATOM      7  C   UNL     1     127.682 124.780 179.965  0.00  0.00    +0.000 A 
ATOM      8  C   UNL     1     126.890 123.917 180.355  0.00  0.00    +0.000 A 
ENDROOT
BRANCH   1  10
ATOM      9  C   UNL     1     128.095 124.523 182.221  0.00  0.00    +0.000 C 
ATOM     10  N   UNL     1     127.582 124.837 181.854  0.00  0.00    +0.000 NA
ATOM     11  N   UNL     1     128.553 124.020 182.061  0.00  0.00    +0.000 NA
ATOM     12  N   UNL     1     128.213 124.719 182.895  0.00  0.00    +0.000 NA
ATOM     13  C   UNL     1     128.956 123.902 182.631  0.00  0.00    +0.000 C 
ATOM     14  C   UNL     1     128.750 124.328 183.143  0.00  0.00    +0.000 C 
ENDBRANCH   1  10
TORSDOF 1
ENDMDL
MODEL 19
REMARK VINA RESULT:      -6.2     44.444     44.850
REMARK  Name = 
REMARK  1 active torsions:
REMARK  status: ('A' for Active; 'I' for Inactive)
REMARK    1  A    between atoms: C_2  and  N_3
REMARK                            x       y       z     vdW  Elec       q    Type
REMARK                         _______ _______ _______ _____ _____    ______ ____
ROOT
ATOM      1  C   UNL     1     162.817 133.192 201.025  0.00  0.00    +0.000 A 
ATOM      2  C   UNL     1     163.160 132.590 201.181  0.00  0.00    +0.000 A 
ATOM      3  C   UNL     1     162.150 133.164 200.765  0.00  0.00    +0.000 A 
ATOM      4 CL   UNL     1     161.810 133.779 200.611  0.00  0.00    +0.000 Cl
ATOM      5 CL   UNL     1     163.831 132.616 201.442  0.00  0.00    +0.000 Cl
ATOM      6  C   UNL     1     162.190 131.943 200.825  0.00  0.00    +0.000 A 
ATOM      7  C   UNL     1     161.833 132.533 200.664  0.00  0.00    +0.000 A 
ATOM      8  C   UNL     1     162.843 131.959 201.080  0.00  0.00    +0.000 A 
ENDROOT
BRANCH   1  10
ATOM      9  C   UNL     1     163.512 134.112 200.605  0.00  0.00    +0.000 C 
ATOM     10  N   UNL     1     163.136 133.826 201.127  0.00  0.00    +0.000 NA
ATOM     11  N   UNL     1     163.660 133.901 199.955  0.00  0.00    +0.000 NA
ATOM     12  N   UNL     1     163.829 134.741 200.706  0.00  0.00    +0.000 NA
ATOM     13  C   UNL     1     164.065 134.396 199.651  0.00  0.00    +0.000 C 
ATOM     14  C   UNL     1     164.170 134.911 200.108  0.00  0.00    +0.000 C 
ENDBRANCH   1  10
TORSDOF 1
ENDMDL
MODEL 20
REMARK VINA RESULT:      -6.1     27.246     27.833
REMARK  Name = 
REMARK  1 active torsions:
REMARK  status: ('A' for Active; 'I' for Inactive)
REMARK    1  A    between atoms: C_2  and  N_3
REMARK                            x       y       z     vdW  Elec       q    Type
REMARK                         _______ _______ _______ _____ _____    ______ ____
ROOT
ATOM      1  C   UNL     1     126.620 123.771 182.574  0.00  0.00    +0.000 A 
ATOM      2  C   UNL     1     126.997 123.226 182.828  0.00  0.00    +0.000 A 
ATOM      3  C   UNL     1     125.913 123.798 182.686  0.00  0.00    +0.000 A 
ATOM      4 CL   UNL     1     125.539 124.355 182.426  0.00  0.00    +0.000 Cl
ATOM      5 CL   UNL     1     127.708 123.197 182.716  0.00  0.00    +0.000 Cl
ATOM      6  C   UNL     1     125.982 122.740 183.297  0.00  0.00    +0.000 A 
ATOM      7  C   UNL     1     125.590 123.277 183.051  0.00  0.00    +0.000 A 
ATOM      8  C   UNL     1     126.674 122.705 183.193  0.00  0.00    +0.000 A 
ENDROOT
BRANCH   1  10
ATOM      9  C   UNL     1     127.006 124.240 181.508  0.00  0.00    +0.000 C 
ATOM     10  N   UNL     1     126.945 124.295 182.207  0.00  0.00    +0.000 NA
ATOM     11  N   UNL     1     126.807 123.751 181.050  0.00  0.00    +0.000 NA
ATOM     12  N   UNL     1     127.328 124.760 181.143  0.00  0.00    +0.000 NA
ATOM     13  C   UNL     1     127.004 123.963 180.404  0.00  0.00    +0.000 C 
ATOM     14  C   UNL     1     127.322 124.580 180.457  0.00  0.00    +0.000 C 
ENDBRANCH   1  10
TORSDOF 1
ENDMDL
