REMARK  Name = 
REMARK  4 active torsions:
REMARK  status: ('A' for Active; 'I' for Inactive)
REMARK    1  A    between atoms: C_5  and  N_7
REMARK    2  A    between atoms: C_6  and  C_8
REMARK    3  A    between atoms: C_8  and  O_12
REMARK    4  A    between atoms: O_12  and  C_15
REMARK                            x       y       z     vdW  Elec       q    Type
REMARK                         _______ _______ _______ _____ _____    ______ ____
ROOT
ATOM      1  C   UNL     1       0.354  -0.062   0.000  0.00  0.00    +0.000 C 
ATOM      2  N   UNL     1       0.037  -1.054   0.000  0.00  0.00    +0.000 N 
ATOM      3  S   UNL     1      -0.483   0.546   0.000  0.00  0.00    +0.000 S 
ATOM      4  C   UNL     1      -1.008  -1.054   0.000  0.00  0.00    +0.000 C 
ATOM      5  C   UNL     1      -1.333  -0.062   0.000  0.00  0.00    +0.000 C 
ATOM      6  C   UNL     1       1.354   0.263   0.000  0.00  0.00    +0.000 C 
ATOM      7  O   UNL     1      -1.625  -1.892   0.000  0.00  0.00    +0.000 OA
ATOM      8  C   UNL     1       0.654  -1.892   0.000  0.00  0.00    +0.000 C 
ENDROOT
BRANCH   5   9
ATOM      9  N   UNL     1      -2.321   0.263   0.000  0.00  0.00    +0.000 NA
ATOM     10  C   UNL     1      -2.562   1.296   0.000  0.00  0.00    +0.000 C 
ATOM     11  C   UNL     1      -3.087  -0.438   0.000  0.00  0.00    +0.000 C 
ATOM     12  C   UNL     1      -3.583   1.596   0.000  0.00  0.00    +0.000 C 
ATOM     13  C   UNL     1      -4.108  -0.138   0.000  0.00  0.00    +0.000 C 
ATOM     14  C   UNL     1      -4.346   0.883   0.000  0.00  0.00    +0.000 C 
ENDBRANCH   5   9
BRANCH   6  15
ATOM     15  C   UNL     1       1.567   1.283   0.000  0.00  0.00    +0.000 C 
ATOM     16  O   UNL     1       0.800   1.996   0.000  0.00  0.00    +0.000 OA
BRANCH  15  17
ATOM     17  O   UNL     1       2.554   1.596   0.000  0.00  0.00    +0.000 OA
BRANCH  17  18
ATOM     18  C   UNL     1       3.342   0.908   0.000  0.00  0.00    +0.000 C 
ATOM     19  C   UNL     1       4.342   1.208   0.000  0.00  0.00    +0.000 C 
ENDBRANCH  17  18
ENDBRANCH  15  17
ENDBRANCH   6  15
TORSDOF 4
