REMARK  Name = 
REMARK  12 active torsions:
REMARK  status: ('A' for Active; 'I' for Inactive)
REMARK    1  A    between atoms: C_9  and  C_12
REMARK    2  A    between atoms: C_9  and  O_28
REMARK    3  A    between atoms: C_10  and  C_11
REMARK    4  A    between atoms: C_12  and  C_13
REMARK    5  A    between atoms: C_13  and  N_14
REMARK    6  A    between atoms: N_14  and  C_15
REMARK    7  A    between atoms: C_15  and  C_16
REMARK    8  A    between atoms: C_16  and  C_17
REMARK    9  A    between atoms: C_17  and  C_18
REMARK   10  A    between atoms: O_28  and  C_29
REMARK   11  A    between atoms: C_29  and  C_31
REMARK   12  A    between atoms: C_31  and  O_32
REMARK                            x       y       z     vdW  Elec       q    Type
REMARK                         _______ _______ _______ _____ _____    ______ ____
ROOT
ATOM      1  C   UNL     1       2.936 -14.108   0.000  0.00  0.00    +0.000 A 
ATOM      2  C   UNL     1       2.935 -14.936   0.000  0.00  0.00    +0.000 A 
ATOM      3  C   UNL     1       3.650 -15.348   0.000  0.00  0.00    +0.000 A 
ATOM      4  C   UNL     1       3.648 -13.695   0.000  0.00  0.00    +0.000 A 
ATOM      5  C   UNL     1       4.363 -14.105   0.000  0.00  0.00    +0.000 A 
ATOM      6  C   UNL     1       4.362 -14.933   0.000  0.00  0.00    +0.000 A 
ATOM      7  C   UNL     1       5.075 -15.346   0.000  0.00  0.00    +0.000 C 
ATOM      8  C   UNL     1       5.794 -14.935   0.000  0.00  0.00    +0.000 C 
ATOM      9  C   UNL     1       5.795 -14.107   0.000  0.00  0.00    +0.000 C 
ATOM     10  C   UNL     1       5.077 -13.689   0.000  0.00  0.00    +0.000 C 
ATOM     11  F   UNL     1       2.220 -15.348   0.000  0.00  0.00    +0.000 F 
ENDROOT
BRANCH  10  12
ATOM     12  C   UNL     1       5.077 -12.864   0.000  0.00  0.00    +0.000 C 
ATOM     13  C   UNL     1       5.792 -12.452   0.000  0.00  0.00    +0.000 C 
ATOM     14  C   UNL     1       4.363 -12.452   0.000  0.00  0.00    +0.000 C 
ENDBRANCH  10  12
BRANCH   9  15
ATOM     15  C   UNL     1       6.510 -13.696   0.000  0.00  0.00    +0.000 C 
BRANCH  15  16
ATOM     16  C   UNL     1       6.917 -14.408   0.000  0.00  0.00    +0.000 C 
BRANCH  16  17
ATOM     17  N   UNL     1       7.742 -14.413   0.000  0.00  0.00    +0.000 NA
ATOM     18  C   UNL     1       8.058 -15.175   0.000  0.00  0.00    +0.000 C 
BRANCH  17  19
ATOM     19  C   UNL     1       8.321 -13.825   0.000  0.00  0.00    +0.000 C 
BRANCH  19  20
ATOM     20  C   UNL     1       9.119 -14.033   0.000  0.00  0.00    +0.000 C 
BRANCH  20  21
ATOM     21  C   UNL     1       9.698 -13.445   0.000  0.00  0.00    +0.000 C 
BRANCH  21  22
ATOM     22  C   UNL     1      10.497 -13.653   0.000  0.00  0.00    +0.000 A 
ATOM     23  N   UNL     1      10.800 -14.419   0.000  0.00  0.00    +0.000 NA
ATOM     24  N   UNL     1      11.136 -13.127   0.000  0.00  0.00    +0.000 NA
ATOM     25  C   UNL     1      11.832 -13.571   0.000  0.00  0.00    +0.000 A 
ATOM     26  C   UNL     1      11.623 -14.369   0.000  0.00  0.00    +0.000 A 
ATOM     27  C   UNL     1      12.208 -14.947   0.000  0.00  0.00    +0.000 A 
ATOM     28  C   UNL     1      13.003 -14.728   0.000  0.00  0.00    +0.000 A 
ATOM     29  C   UNL     1      13.209 -13.926   0.000  0.00  0.00    +0.000 A 
ATOM     30  C   UNL     1      12.622 -13.352   0.000  0.00  0.00    +0.000 A 
ENDBRANCH  21  22
ENDBRANCH  20  21
ENDBRANCH  19  20
ENDBRANCH  17  19
ENDBRANCH  16  17
ENDBRANCH  15  16
ENDBRANCH   9  15
BRANCH   9  31
ATOM     31  O   UNL     1       5.584 -13.309   0.000  0.00  0.00    +0.000 OA
BRANCH  31  32
ATOM     32  C   UNL     1       6.296 -12.892   0.000  0.00  0.00    +0.000 C 
ATOM     33  O   UNL     1       7.013 -13.299   0.000  0.00  0.00    +0.000 OA
BRANCH  32  34
ATOM     34  C   UNL     1       6.290 -12.067   0.000  0.00  0.00    +0.000 C 
BRANCH  34  35
ATOM     35  O   UNL     1       7.002 -11.649   0.000  0.00  0.00    +0.000 OA
ATOM     36  C   UNL     1       6.997 -10.824   0.000  0.00  0.00    +0.000 C 
ENDBRANCH  34  35
ENDBRANCH  32  34
ENDBRANCH  31  32
ENDBRANCH   9  31
TORSDOF 12
