REMARK  Name = 
REMARK  2 active torsions:
REMARK  status: ('A' for Active; 'I' for Inactive)
REMARK    1  A    between atoms: S_4  and  C_6
REMARK    2  A    between atoms: C_5  and  C_14
REMARK                            x       y       z     vdW  Elec       q    Type
REMARK                         _______ _______ _______ _____ _____    ______ ____
ROOT
ATOM      1  S   UNL     1       3.775  -1.104   0.000  0.00  0.00    +0.000 S 
ATOM      2  N   UNL     1       4.379  -1.467   0.000  0.00  0.00    +0.000 NA
ATOM      3  C   UNL     1       3.167  -1.454   0.000  0.00  0.00    +0.000 A 
ATOM      4  C   UNL     1       4.379  -2.167   0.000  0.00  0.00    +0.000 C 
ATOM      5  C   UNL     1       1.942  -1.450   0.000  0.00  0.00    +0.000 A 
ATOM      6  C   UNL     1       3.163  -2.154   0.000  0.00  0.00    +0.000 A 
ATOM      7  N   UNL     1       3.763  -2.513   0.000  0.00  0.00    +0.000 NA
ATOM      8  C   UNL     1       2.554  -1.092   0.000  0.00  0.00    +0.000 A 
ATOM      9  C   UNL     1       1.938  -2.142   0.000  0.00  0.00    +0.000 A 
ATOM     10  C   UNL     1       2.542  -2.500   0.000  0.00  0.00    +0.000 A 
ATOM     11  O   UNL     1       4.229  -0.567   0.000  0.00  0.00    +0.000 OA
ATOM     12  O   UNL     1       3.317  -0.554   0.000  0.00  0.00    +0.000 OA
ATOM     13 CL   UNL     1       1.317  -2.492   0.000  0.00  0.00    +0.000 Cl
ENDROOT
BRANCH   5  14
ATOM     14  S   UNL     1       1.329  -1.092   0.000  0.00  0.00    +0.000 S 
ATOM     15  O   UNL     1       1.679  -0.475   0.000  0.00  0.00    +0.000 OA
ATOM     16  O   UNL     1       0.967  -0.475   0.000  0.00  0.00    +0.000 OA
ATOM     17  N   UNL     1       0.713  -1.442   0.000  0.00  0.00    +0.000 NA
ENDBRANCH   5  14
BRANCH   4  18
ATOM     18  C   UNL     1       4.963  -2.567   0.000  0.00  0.00    +0.000 C 
ATOM     19 CL   UNL     1       4.963  -3.279   0.000  0.00  0.00    +0.000 Cl
ATOM     20 CL   UNL     1       5.654  -2.154   0.000  0.00  0.00    +0.000 Cl
ENDBRANCH   4  18
TORSDOF 2
