REMARK  Name = 
REMARK  4 active torsions:
REMARK  status: ('A' for Active; 'I' for Inactive)
REMARK    1  A    between atoms: C_1  and  C_5
REMARK    2  A    between atoms: N_3  and  C_4
REMARK    3  A    between atoms: N_3  and  C_5
REMARK    4  A    between atoms: C_4  and  C_6
REMARK                            x       y       z     vdW  Elec       q    Type
REMARK                         _______ _______ _______ _____ _____    ______ ____
ROOT
ATOM      1  C   UNL     1       5.304  -6.867   0.000  0.00  0.00    +0.000 C 
ENDROOT
BRANCH   1   2
ATOM      2  C   UNL     1       5.925  -7.217   0.000  0.00  0.00    +0.000 A 
ATOM      3  C   UNL     1       6.542  -6.879   0.000  0.00  0.00    +0.000 A 
ATOM      4  C   UNL     1       5.912  -7.929   0.000  0.00  0.00    +0.000 A 
ATOM      5  C   UNL     1       6.525  -8.292   0.000  0.00  0.00    +0.000 A 
ATOM      6  C   UNL     1       7.154  -7.242   0.000  0.00  0.00    +0.000 A 
ATOM      7  C   UNL     1       7.142  -7.942   0.000  0.00  0.00    +0.000 A 
ENDBRANCH   1   2
BRANCH   1   8
ATOM      8  N   UNL     1       4.700  -7.204   0.000  0.00  0.00    +0.000 NA
ATOM      9  C   UNL     1       4.692  -7.917   0.000  0.00  0.00    +0.000 C 
BRANCH   8  10
ATOM     10  C   UNL     1       4.079  -6.842   0.000  0.00  0.00    +0.000 C 
BRANCH  10  11
ATOM     11  C   UNL     1       3.462  -7.192   0.000  0.00  0.00    +0.000 C 
ATOM     12  C   UNL     1       2.842  -7.542   0.000  0.00  0.00    +0.000 C 
ENDBRANCH  10  11
ENDBRANCH   8  10
ENDBRANCH   1   8
TORSDOF 4
