REMARK  Name = 
REMARK  6 active torsions:
REMARK  status: ('A' for Active; 'I' for Inactive)
REMARK    1  A    between atoms: C_1  and  C_6
REMARK    2  A    between atoms: C_2  and  C_15
REMARK    3  A    between atoms: C_3  and  O_13
REMARK    4  A    between atoms: N_5  and  C_8
REMARK    5  A    between atoms: C_6  and  C_8
REMARK    6  A    between atoms: C_10  and  O_16
REMARK                            x       y       z     vdW  Elec       q    Type
REMARK                         _______ _______ _______ _____ _____    ______ ____
ROOT
ATOM      1  C   UNL     1       2.950  -5.925   0.000  0.00  0.00    +0.000 A 
ATOM      2  C   UNL     1       3.562  -5.567   0.000  0.00  0.00    +0.000 A 
ATOM      3  C   UNL     1       2.321  -5.592   0.000  0.00  0.00    +0.000 A 
ATOM      4  C   UNL     1       3.538  -4.829   0.000  0.00  0.00    +0.000 A 
ATOM      5  C   UNL     1       2.304  -4.879   0.000  0.00  0.00    +0.000 A 
ATOM      6  C   UNL     1       2.938  -4.504   0.000  0.00  0.00    +0.000 A 
ENDROOT
BRANCH   1   7
ATOM      7  C   UNL     1       2.942  -6.638   0.000  0.00  0.00    +0.000 C 
ATOM      8  O   UNL     1       2.329  -7.000   0.000  0.00  0.00    +0.000 OA
BRANCH   7   9
ATOM      9  C   UNL     1       3.554  -6.987   0.000  0.00  0.00    +0.000 C 
BRANCH   9  11
ATOM     10  C   UNL     1       4.763  -6.967   0.000  0.00  0.00    +0.000 C 
ATOM     11  N   UNL     1       4.162  -6.642   0.000  0.00  0.00    +0.000 NA
ATOM     12  O   UNL     1       4.779  -7.650   0.000  0.00  0.00    +0.000 OA
BRANCH  10  14
ATOM     13  N   UNL     1       5.963  -6.900   0.000  0.00  0.00    +0.000 NA
ATOM     14  C   UNL     1       5.350  -6.579   0.000  0.00  0.00    +0.000 C 
ENDBRANCH  10  14
ENDBRANCH   9  11
ENDBRANCH   7   9
ENDBRANCH   1   7
BRANCH   2  15
ATOM     15  O   UNL     1       4.175  -5.917   0.000  0.00  0.00    +0.000 OA
ATOM     16  C   UNL     1       4.892  -5.567   0.000  0.00  0.00    +0.000 C 
ENDBRANCH   2  15
BRANCH   5  17
ATOM     17  O   UNL     1       1.679  -4.554   0.000  0.00  0.00    +0.000 OA
ATOM     18  C   UNL     1       1.113  -4.929   0.000  0.00  0.00    +0.000 C 
ENDBRANCH   5  17
TORSDOF 6
