MODEL 1
REMARK VINA RESULT:      -7.9      0.000      0.000
REMARK  Name = 
REMARK  8 active torsions:
REMARK  status: ('A' for Active; 'I' for Inactive)
REMARK    1  A    between atoms: C_1  and  C_2
REMARK    2  A    between atoms: C_1  and  O_4
REMARK    3  A    between atoms: C_2  and  O_10
REMARK    4  A    between atoms: C_3  and  C_18
REMARK    5  A    between atoms: O_4  and  C_8
REMARK    6  A    between atoms: O_10  and  C_21
REMARK    7  A    between atoms: C_18  and  C_22
REMARK    8  A    between atoms: C_21  and  C_22
REMARK                            x       y       z     vdW  Elec       q    Type
REMARK                         _______ _______ _______ _____ _____    ______ ____
ROOT
ATOM      1  C   UNL     1     105.579 140.808 160.521  0.00  0.00    +0.000 C 
ATOM      2  C   UNL     1     104.643 140.200 160.210  0.00  0.00    +0.000 C 
ATOM      3  C   UNL     1     105.045 141.775 160.189  0.00  0.00    +0.000 C 
ENDROOT
BRANCH   1   4
ATOM      4  C   UNL     1     106.528 141.417 160.837  0.00  0.00    +0.000 C 
ATOM      5  O   UNL     1     107.502 141.262 160.323  0.00  0.00    +0.000 OA
BRANCH   4   6
ATOM      6  O   UNL     1     106.474 142.196 161.694  0.00  0.00    +0.000 OA
BRANCH   6   7
ATOM      7  C   UNL     1     107.401 142.362 162.360  0.00  0.00    +0.000 C 
BRANCH   7   8
ATOM      8  C   UNL     1     107.343 143.007 163.313  0.00  0.00    +0.000 C 
BRANCH   8   9
ATOM      9  C   UNL     1     106.958 142.569 164.305  0.00  0.00    +0.000 C 
BRANCH   9  10
ATOM     10  C   UNL     1     106.015 142.992 164.807  0.00  0.00    +0.000 C 
ATOM     11  N   UNL     1     105.500 142.438 165.680  0.00  0.00    +0.000 N 
ATOM     12  O   UNL     1     105.579 143.996 164.424  0.00  0.00    +0.000 OA
ATOM     13  C   UNL     1     105.939 141.458 166.042  0.00  0.00    +0.000 C 
ATOM     14  C   UNL     1     104.552 142.893 166.162  0.00  0.00    +0.000 C 
ENDBRANCH   9  10
ENDBRANCH   8   9
ENDBRANCH   7   8
ENDBRANCH   6   7
ENDBRANCH   4   6
ENDBRANCH   1   4
BRANCH   1  15
ATOM     15  O   UNL     1     106.105 139.816 160.853  0.00  0.00    +0.000 OA
BRANCH  15  16
ATOM     16  C   UNL     1     105.582 139.112 161.628  0.00  0.00    +0.000 A 
ATOM     17  C   UNL     1     104.561 137.732 163.181  0.00  0.00    +0.000 A 
ATOM     18 CL   UNL     1     104.037 137.024 163.968  0.00  0.00    +0.000 Cl
ATOM     19  C   UNL     1     105.793 139.247 162.771  0.00  0.00    +0.000 A 
ATOM     20  C   UNL     1     104.855 138.277 161.289  0.00  0.00    +0.000 A 
ATOM     21  C   UNL     1     104.349 137.594 162.046  0.00  0.00    +0.000 A 
ATOM     22  C   UNL     1     105.290 138.567 163.535  0.00  0.00    +0.000 A 
ENDBRANCH  15  16
ENDBRANCH   1  15
TORSDOF 8
ENDMDL
MODEL 2
REMARK VINA RESULT:      -7.7     44.960     46.051
REMARK  Name = 
REMARK  8 active torsions:
REMARK  status: ('A' for Active; 'I' for Inactive)
REMARK    1  A    between atoms: C_1  and  C_2
REMARK    2  A    between atoms: C_1  and  O_4
REMARK    3  A    between atoms: C_2  and  O_10
REMARK    4  A    between atoms: C_3  and  C_18
REMARK    5  A    between atoms: O_4  and  C_8
REMARK    6  A    between atoms: O_10  and  C_21
REMARK    7  A    between atoms: C_18  and  C_22
REMARK    8  A    between atoms: C_21  and  C_22
REMARK                            x       y       z     vdW  Elec       q    Type
REMARK                         _______ _______ _______ _____ _____    ______ ____
ROOT
ATOM      1  C   UNL     1     142.373 113.717 164.039  0.00  0.00    +0.000 C 
ATOM      2  C   UNL     1     142.645 114.843 164.089  0.00  0.00    +0.000 C 
ATOM      3  C   UNL     1     143.198 113.498 164.816  0.00  0.00    +0.000 C 
ENDROOT
BRANCH   1   4
ATOM      4  C   UNL     1     142.095 112.582 163.985  0.00  0.00    +0.000 C 
ATOM      5  O   UNL     1     141.979 111.979 164.913  0.00  0.00    +0.000 OA
BRANCH   4   6
ATOM      6  O   UNL     1     141.935 112.058 162.964  0.00  0.00    +0.000 OA
BRANCH   6   7
ATOM      7  C   UNL     1     141.734 110.922 162.942  0.00  0.00    +0.000 C 
BRANCH   7   8
ATOM      8  C   UNL     1     141.665 110.348 161.945  0.00  0.00    +0.000 C 
BRANCH   8   9
ATOM      9  C   UNL     1     142.294 109.403 161.758  0.00  0.00    +0.000 C 
BRANCH   9  10
ATOM     10  C   UNL     1     143.028 109.351 160.876  0.00  0.00    +0.000 C 
ATOM     11  N   UNL     1     143.658 108.404 160.674  0.00  0.00    +0.000 N 
ATOM     12  O   UNL     1     143.132 110.272 160.179  0.00  0.00    +0.000 OA
ATOM     13  C   UNL     1     143.544 107.513 161.365  0.00  0.00    +0.000 C 
ATOM     14  C   UNL     1     144.387 108.387 159.777  0.00  0.00    +0.000 C 
ENDBRANCH   9  10
ENDBRANCH   8   9
ENDBRANCH   7   8
ENDBRANCH   6   7
ENDBRANCH   4   6
ENDBRANCH   1   4
BRANCH   1  15
ATOM     15  O   UNL     1     141.542 113.959 163.253  0.00  0.00    +0.000 OA
BRANCH  15  16
ATOM     16  C   UNL     1     140.677 114.698 163.529  0.00  0.00    +0.000 A 
ATOM     17  C   UNL     1     138.974 116.176 164.054  0.00  0.00    +0.000 A 
ATOM     18 CL   UNL     1     138.103 116.925 164.328  0.00  0.00    +0.000 Cl
ATOM     19  C   UNL     1     140.490 115.646 162.869  0.00  0.00    +0.000 A 
ATOM     20  C   UNL     1     139.996 114.513 164.447  0.00  0.00    +0.000 A 
ATOM     21  C   UNL     1     139.157 115.234 164.712  0.00  0.00    +0.000 A 
ATOM     22  C   UNL     1     139.651 116.373 163.129  0.00  0.00    +0.000 A 
ENDBRANCH  15  16
ENDBRANCH   1  15
TORSDOF 8
ENDMDL
MODEL 3
REMARK VINA RESULT:      -7.6      2.106      3.043
REMARK  Name = 
REMARK  8 active torsions:
REMARK  status: ('A' for Active; 'I' for Inactive)
REMARK    1  A    between atoms: C_1  and  C_2
REMARK    2  A    between atoms: C_1  and  O_4
REMARK    3  A    between atoms: C_2  and  O_10
REMARK    4  A    between atoms: C_3  and  C_18
REMARK    5  A    between atoms: O_4  and  C_8
REMARK    6  A    between atoms: O_10  and  C_21
REMARK    7  A    between atoms: C_18  and  C_22
REMARK    8  A    between atoms: C_21  and  C_22
REMARK                            x       y       z     vdW  Elec       q    Type
REMARK                         _______ _______ _______ _____ _____    ______ ____
ROOT
ATOM      1  C   UNL     1     106.918 142.642 162.044  0.00  0.00    +0.000 C 
ATOM      2  C   UNL     1     106.845 142.401 160.912  0.00  0.00    +0.000 C 
ATOM      3  C   UNL     1     106.515 143.701 161.830  0.00  0.00    +0.000 C 
ENDROOT
BRANCH   1   4
ATOM      4  C   UNL     1     106.993 142.880 163.187  0.00  0.00    +0.000 C 
ATOM      5  O   UNL     1     107.948 142.734 163.738  0.00  0.00    +0.000 OA
BRANCH   4   6
ATOM      6  O   UNL     1     106.074 143.274 163.773  0.00  0.00    +0.000 OA
BRANCH   6   7
ATOM      7  C   UNL     1     106.064 143.189 164.924  0.00  0.00    +0.000 C 
BRANCH   7   8
ATOM      8  C   UNL     1     105.195 143.623 165.546  0.00  0.00    +0.000 C 
BRANCH   8   9
ATOM      9  C   UNL     1     104.445 144.363 165.084  0.00  0.00    +0.000 C 
BRANCH   9  10
ATOM     10  C   UNL     1     104.056 145.258 165.689  0.00  0.00    +0.000 C 
ATOM     11  N   UNL     1     103.489 146.126 165.180  0.00  0.00    +0.000 N 
ATOM     12  O   UNL     1     104.240 145.283 166.834  0.00  0.00    +0.000 OA
ATOM     13  C   UNL     1     103.317 146.086 164.060  0.00  0.00    +0.000 C 
ATOM     14  C   UNL     1     103.111 147.012 165.821  0.00  0.00    +0.000 C 
ENDBRANCH   9  10
ENDBRANCH   8   9
ENDBRANCH   7   8
ENDBRANCH   6   7
ENDBRANCH   4   6
ENDBRANCH   1   4
BRANCH   1  15
ATOM     15  O   UNL     1     107.325 141.563 162.241  0.00  0.00    +0.000 OA
BRANCH  15  16
ATOM     16  C   UNL     1     106.613 140.642 162.125  0.00  0.00    +0.000 A 
ATOM     17  C   UNL     1     105.206 138.814 161.920  0.00  0.00    +0.000 A 
ATOM     18 CL   UNL     1     104.488 137.883 161.809  0.00  0.00    +0.000 Cl
ATOM     19  C   UNL     1     106.392 139.957 163.048  0.00  0.00    +0.000 A 
ATOM     20  C   UNL     1     106.116 140.389 161.110  0.00  0.00    +0.000 A 
ATOM     21  C   UNL     1     105.424 139.492 161.001  0.00  0.00    +0.000 A 
ATOM     22  C   UNL     1     105.699 139.058 162.945  0.00  0.00    +0.000 A 
ENDBRANCH  15  16
ENDBRANCH   1  15
TORSDOF 8
ENDMDL
MODEL 4
REMARK VINA RESULT:      -7.5      3.319      5.817
REMARK  Name = 
REMARK  8 active torsions:
REMARK  status: ('A' for Active; 'I' for Inactive)
REMARK    1  A    between atoms: C_1  and  C_2
REMARK    2  A    between atoms: C_1  and  O_4
REMARK    3  A    between atoms: C_2  and  O_10
REMARK    4  A    between atoms: C_3  and  C_18
REMARK    5  A    between atoms: O_4  and  C_8
REMARK    6  A    between atoms: O_10  and  C_21
REMARK    7  A    between atoms: C_18  and  C_22
REMARK    8  A    between atoms: C_21  and  C_22
REMARK                            x       y       z     vdW  Elec       q    Type
REMARK                         _______ _______ _______ _____ _____    ______ ____
ROOT
ATOM      1  C   UNL     1     106.716 143.075 161.704  0.00  0.00    +0.000 C 
ATOM      2  C   UNL     1     106.844 143.860 162.548  0.00  0.00    +0.000 C 
ATOM      3  C   UNL     1     106.025 143.810 161.144  0.00  0.00    +0.000 C 
ENDROOT
BRANCH   1   4
ATOM      4  C   UNL     1     106.589 142.279 160.855  0.00  0.00    +0.000 C 
ATOM      5  O   UNL     1     107.474 141.763 160.421  0.00  0.00    +0.000 OA
BRANCH   4   6
ATOM      6  O   UNL     1     105.539 142.009 160.447  0.00  0.00    +0.000 OA
BRANCH   6   7
ATOM      7  C   UNL     1     105.455 141.311 159.532  0.00  0.00    +0.000 C 
BRANCH   7   8
ATOM      8  C   UNL     1     104.574 141.399 158.794  0.00  0.00    +0.000 C 
BRANCH   8   9
ATOM      9  C   UNL     1     104.722 141.838 157.741  0.00  0.00    +0.000 C 
BRANCH   9  10
ATOM     10  C   UNL     1     104.189 141.378 156.833  0.00  0.00    +0.000 C 
ATOM     11  N   UNL     1     104.421 141.732 155.758  0.00  0.00    +0.000 N 
ATOM     12  O   UNL     1     103.404 140.543 157.008  0.00  0.00    +0.000 OA
ATOM     13  C   UNL     1     105.192 142.549 155.605  0.00  0.00    +0.000 C 
ATOM     14  C   UNL     1     103.865 141.247 154.867  0.00  0.00    +0.000 C 
ENDBRANCH   9  10
ENDBRANCH   8   9
ENDBRANCH   7   8
ENDBRANCH   6   7
ENDBRANCH   4   6
ENDBRANCH   1   4
BRANCH   1  15
ATOM     15  O   UNL     1     107.418 142.343 162.287  0.00  0.00    +0.000 OA
BRANCH  15  16
ATOM     16  C   UNL     1     107.071 141.895 163.311  0.00  0.00    +0.000 A 
ATOM     17  C   UNL     1     106.392 141.031 165.349  0.00  0.00    +0.000 A 
ATOM     18 CL   UNL     1     106.043 140.584 166.385  0.00  0.00    +0.000 Cl
ATOM     19  C   UNL     1     107.193 142.522 164.291  0.00  0.00    +0.000 A 
ATOM     20  C   UNL     1     106.606 140.836 163.379  0.00  0.00    +0.000 A 
ATOM     21  C   UNL     1     106.269 140.404 164.377  0.00  0.00    +0.000 A 
ATOM     22  C   UNL     1     106.858 142.095 165.294  0.00  0.00    +0.000 A 
ENDBRANCH  15  16
ENDBRANCH   1  15
TORSDOF 8
ENDMDL
MODEL 5
REMARK VINA RESULT:      -7.4     46.605     47.701
REMARK  Name = 
REMARK  8 active torsions:
REMARK  status: ('A' for Active; 'I' for Inactive)
REMARK    1  A    between atoms: C_1  and  C_2
REMARK    2  A    between atoms: C_1  and  O_4
REMARK    3  A    between atoms: C_2  and  O_10
REMARK    4  A    between atoms: C_3  and  C_18
REMARK    5  A    between atoms: O_4  and  C_8
REMARK    6  A    between atoms: O_10  and  C_21
REMARK    7  A    between atoms: C_18  and  C_22
REMARK    8  A    between atoms: C_21  and  C_22
REMARK                            x       y       z     vdW  Elec       q    Type
REMARK                         _______ _______ _______ _____ _____    ______ ____
ROOT
ATOM      1  C   UNL     1     141.169 112.264 164.207  0.00  0.00    +0.000 C 
ATOM      2  C   UNL     1     141.096 112.770 165.249  0.00  0.00    +0.000 C 
ATOM      3  C   UNL     1     140.037 112.435 164.061  0.00  0.00    +0.000 C 
ENDROOT
BRANCH   1   4
ATOM      4  C   UNL     1     141.247 111.754 163.157  0.00  0.00    +0.000 C 
ATOM      5  O   UNL     1     140.862 112.263 162.246  0.00  0.00    +0.000 OA
BRANCH   4   6
ATOM      6  O   UNL     1     141.727 110.706 163.042  0.00  0.00    +0.000 OA
BRANCH   6   7
ATOM      7  C   UNL     1     141.754 110.213 161.998  0.00  0.00    +0.000 C 
BRANCH   7   8
ATOM      8  C   UNL     1     142.500 109.367 161.758  0.00  0.00    +0.000 C 
BRANCH   8   9
ATOM      9  C   UNL     1     142.950 109.253 160.706  0.00  0.00    +0.000 C 
BRANCH   9  10
ATOM     10  C   UNL     1     143.831 108.539 160.519  0.00  0.00    +0.000 C 
ATOM     11  N   UNL     1     144.359 108.493 159.492  0.00  0.00    +0.000 N 
ATOM     12  O   UNL     1     144.190 107.854 161.383  0.00  0.00    +0.000 OA
ATOM     13  C   UNL     1     143.995 109.169 158.658  0.00  0.00    +0.000 C 
ATOM     14  C   UNL     1     145.243 107.763 159.340  0.00  0.00    +0.000 C 
ENDBRANCH   9  10
ENDBRANCH   8   9
ENDBRANCH   7   8
ENDBRANCH   6   7
ENDBRANCH   4   6
ENDBRANCH   1   4
BRANCH   1  15
ATOM     15  O   UNL     1     142.315 112.100 164.373  0.00  0.00    +0.000 OA
BRANCH  15  16
ATOM     16  C   UNL     1     143.029 113.025 164.457  0.00  0.00    +0.000 A 
ATOM     17  C   UNL     1     144.427 114.864 164.603  0.00  0.00    +0.000 A 
ATOM     18 CL   UNL     1     145.144 115.799 164.683  0.00  0.00    +0.000 Cl
ATOM     19  C   UNL     1     142.890 113.934 163.734  0.00  0.00    +0.000 A 
ATOM     20  C   UNL     1     143.876 113.062 165.246  0.00  0.00    +0.000 A 
ATOM     21  C   UNL     1     144.568 113.962 165.324  0.00  0.00    +0.000 A 
ATOM     22  C   UNL     1     143.580 114.839 163.807  0.00  0.00    +0.000 A 
ENDBRANCH  15  16
ENDBRANCH   1  15
TORSDOF 8
ENDMDL
MODEL 6
REMARK VINA RESULT:      -7.4      2.960      5.413
REMARK  Name = 
REMARK  8 active torsions:
REMARK  status: ('A' for Active; 'I' for Inactive)
REMARK    1  A    between atoms: C_1  and  C_2
REMARK    2  A    between atoms: C_1  and  O_4
REMARK    3  A    between atoms: C_2  and  O_10
REMARK    4  A    between atoms: C_3  and  C_18
REMARK    5  A    between atoms: O_4  and  C_8
REMARK    6  A    between atoms: O_10  and  C_21
REMARK    7  A    between atoms: C_18  and  C_22
REMARK    8  A    between atoms: C_21  and  C_22
REMARK                            x       y       z     vdW  Elec       q    Type
REMARK                         _______ _______ _______ _____ _____    ______ ____
ROOT
ATOM      1  C   UNL     1     106.662 140.697 164.282  0.00  0.00    +0.000 C 
ATOM      2  C   UNL     1     106.016 140.326 165.171  0.00  0.00    +0.000 C 
ATOM      3  C   UNL     1     106.389 139.738 163.702  0.00  0.00    +0.000 C 
ENDROOT
BRANCH   1   4
ATOM      4  C   UNL     1     107.316 141.076 163.388  0.00  0.00    +0.000 C 
ATOM      5  O   UNL     1     108.374 141.379 163.545  0.00  0.00    +0.000 OA
BRANCH   4   6
ATOM      6  O   UNL     1     106.876 141.143 162.318  0.00  0.00    +0.000 OA
BRANCH   6   7
ATOM      7  C   UNL     1     107.352 141.871 161.561  0.00  0.00    +0.000 C 
BRANCH   7   8
ATOM      8  C   UNL     1     106.711 142.641 160.990  0.00  0.00    +0.000 C 
BRANCH   8   9
ATOM      9  C   UNL     1     105.980 142.311 160.166  0.00  0.00    +0.000 C 
BRANCH   9  10
ATOM     10  C   UNL     1     105.730 143.010 159.289  0.00  0.00    +0.000 C 
ATOM     11  N   UNL     1     105.184 142.621 158.348  0.00  0.00    +0.000 N 
ATOM     12  O   UNL     1     106.036 144.126 159.357  0.00  0.00    +0.000 OA
ATOM     13  C   UNL     1     104.892 141.526 158.298  0.00  0.00    +0.000 C 
ATOM     14  C   UNL     1     104.949 143.352 157.483  0.00  0.00    +0.000 C 
ENDBRANCH   9  10
ENDBRANCH   8   9
ENDBRANCH   7   8
ENDBRANCH   6   7
ENDBRANCH   4   6
ENDBRANCH   1   4
BRANCH   1  15
ATOM     15  O   UNL     1     106.928 141.663 164.887  0.00  0.00    +0.000 OA
BRANCH  15  16
ATOM     16  C   UNL     1     106.094 142.452 165.118  0.00  0.00    +0.000 A 
ATOM     17  C   UNL     1     104.455 144.028 165.556  0.00  0.00    +0.000 A 
ATOM     18 CL   UNL     1     103.617 144.827 165.784  0.00  0.00    +0.000 Cl
ATOM     19  C   UNL     1     106.030 143.433 164.483  0.00  0.00    +0.000 A 
ATOM     20  C   UNL     1     105.325 142.284 165.967  0.00  0.00    +0.000 A 
ATOM     21  C   UNL     1     104.516 143.054 166.189  0.00  0.00    +0.000 A 
ATOM     22  C   UNL     1     105.222 144.207 164.700  0.00  0.00    +0.000 A 
ENDBRANCH  15  16
ENDBRANCH   1  15
TORSDOF 8
ENDMDL
MODEL 7
REMARK VINA RESULT:      -7.4     43.547     44.500
REMARK  Name = 
REMARK  8 active torsions:
REMARK  status: ('A' for Active; 'I' for Inactive)
REMARK    1  A    between atoms: C_1  and  C_2
REMARK    2  A    between atoms: C_1  and  O_4
REMARK    3  A    between atoms: C_2  and  O_10
REMARK    4  A    between atoms: C_3  and  C_18
REMARK    5  A    between atoms: O_4  and  C_8
REMARK    6  A    between atoms: O_10  and  C_21
REMARK    7  A    between atoms: C_18  and  C_22
REMARK    8  A    between atoms: C_21  and  C_22
REMARK                            x       y       z     vdW  Elec       q    Type
REMARK                         _______ _______ _______ _____ _____    ______ ____
ROOT
ATOM      1  C   UNL     1     141.467 111.952 164.153  0.00  0.00    +0.000 C 
ATOM      2  C   UNL     1     142.539 111.607 163.875  0.00  0.00    +0.000 C 
ATOM      3  C   UNL     1     141.058 111.361 163.250  0.00  0.00    +0.000 C 
ENDROOT
BRANCH   1   4
ATOM      4  C   UNL     1     140.387 112.303 164.437  0.00  0.00    +0.000 C 
ATOM      5  O   UNL     1     139.560 112.258 163.696  0.00  0.00    +0.000 OA
BRANCH   4   6
ATOM      6  O   UNL     1     140.155 112.706 165.499  0.00  0.00    +0.000 OA
BRANCH   6   7
ATOM      7  C   UNL     1     139.227 113.373 165.654  0.00  0.00    +0.000 C 
BRANCH   7   8
ATOM      8  C   UNL     1     139.329 114.513 165.798  0.00  0.00    +0.000 C 
BRANCH   8   9
ATOM      9  C   UNL     1     138.516 115.235 165.422  0.00  0.00    +0.000 C 
BRANCH   9  10
ATOM     10  C   UNL     1     138.683 115.865 164.476  0.00  0.00    +0.000 C 
ATOM     11  N   UNL     1     138.017 116.779 164.239  0.00  0.00    +0.000 N 
ATOM     12  O   UNL     1     139.539 115.572 163.751  0.00  0.00    +0.000 OA
ATOM     13  C   UNL     1     137.185 117.052 164.959  0.00  0.00    +0.000 C 
ATOM     14  C   UNL     1     138.213 117.391 163.277  0.00  0.00    +0.000 C 
ENDBRANCH   9  10
ENDBRANCH   8   9
ENDBRANCH   7   8
ENDBRANCH   6   7
ENDBRANCH   4   6
ENDBRANCH   1   4
BRANCH   1  15
ATOM     15  O   UNL     1     141.900 112.544 165.064  0.00  0.00    +0.000 OA
BRANCH  15  16
ATOM     16  C   UNL     1     142.761 113.321 164.896  0.00  0.00    +0.000 A 
ATOM     17  C   UNL     1     144.477 114.843 164.583  0.00  0.00    +0.000 A 
ATOM     18 CL   UNL     1     145.348 115.623 164.418  0.00  0.00    +0.000 Cl
ATOM     19  C   UNL     1     143.765 113.212 165.487  0.00  0.00    +0.000 A 
ATOM     20  C   UNL     1     142.642 114.201 164.153  0.00  0.00    +0.000 A 
ATOM     21  C   UNL     1     143.480 114.954 163.994  0.00  0.00    +0.000 A 
ATOM     22  C   UNL     1     144.609 113.963 165.332  0.00  0.00    +0.000 A 
ENDBRANCH  15  16
ENDBRANCH   1  15
TORSDOF 8
ENDMDL
MODEL 8
REMARK VINA RESULT:      -7.2      5.212      7.095
REMARK  Name = 
REMARK  8 active torsions:
REMARK  status: ('A' for Active; 'I' for Inactive)
REMARK    1  A    between atoms: C_1  and  C_2
REMARK    2  A    between atoms: C_1  and  O_4
REMARK    3  A    between atoms: C_2  and  O_10
REMARK    4  A    between atoms: C_3  and  C_18
REMARK    5  A    between atoms: O_4  and  C_8
REMARK    6  A    between atoms: O_10  and  C_21
REMARK    7  A    between atoms: C_18  and  C_22
REMARK    8  A    between atoms: C_21  and  C_22
REMARK                            x       y       z     vdW  Elec       q    Type
REMARK                         _______ _______ _______ _____ _____    ______ ____
ROOT
ATOM      1  C   UNL     1     104.447 141.218 155.776  0.00  0.00    +0.000 C 
ATOM      2  C   UNL     1     104.601 141.195 154.627  0.00  0.00    +0.000 C 
ATOM      3  C   UNL     1     103.726 140.321 155.683  0.00  0.00    +0.000 C 
ENDROOT
BRANCH   1   4
ATOM      4  C   UNL     1     104.295 141.244 156.936  0.00  0.00    +0.000 C 
ATOM      5  O   UNL     1     103.338 140.908 157.393  0.00  0.00    +0.000 OA
BRANCH   4   6
ATOM      6  O   UNL     1     105.137 141.622 157.636  0.00  0.00    +0.000 OA
BRANCH   6   7
ATOM      7  C   UNL     1     105.008 141.515 158.778  0.00  0.00    +0.000 C 
BRANCH   7   8
ATOM      8  C   UNL     1     105.921 141.484 159.481  0.00  0.00    +0.000 C 
BRANCH   8   9
ATOM      9  C   UNL     1     106.355 142.447 159.935  0.00  0.00    +0.000 C 
BRANCH   9  10
ATOM     10  C   UNL     1     106.730 142.468 161.021  0.00  0.00    +0.000 C 
ATOM     11  N   UNL     1     106.625 143.415 161.674  0.00  0.00    +0.000 N 
ATOM     12  O   UNL     1     107.222 141.515 161.462  0.00  0.00    +0.000 OA
ATOM     13  C   UNL     1     106.141 144.338 161.227  0.00  0.00    +0.000 C 
ATOM     14  C   UNL     1     107.013 143.400 162.764  0.00  0.00    +0.000 C 
ENDBRANCH   9  10
ENDBRANCH   8   9
ENDBRANCH   7   8
ENDBRANCH   6   7
ENDBRANCH   4   6
ENDBRANCH   1   4
BRANCH   1  15
ATOM     15  O   UNL     1     105.180 142.126 155.850  0.00  0.00    +0.000 OA
BRANCH  15  16
ATOM     16  C   UNL     1     104.972 143.094 155.226  0.00  0.00    +0.000 A 
ATOM     17  C   UNL     1     104.583 145.004 153.977  0.00  0.00    +0.000 A 
ATOM     18 CL   UNL     1     104.378 145.980 153.344  0.00  0.00    +0.000 Cl
ATOM     19  C   UNL     1     105.702 143.397 154.363  0.00  0.00    +0.000 A 
ATOM     20  C   UNL     1     104.054 143.766 155.444  0.00  0.00    +0.000 A 
ATOM     21  C   UNL     1     103.856 144.707 154.835  0.00  0.00    +0.000 A 
ATOM     22  C   UNL     1     105.508 144.338 153.749  0.00  0.00    +0.000 A 
ENDBRANCH  15  16
ENDBRANCH   1  15
TORSDOF 8
ENDMDL
MODEL 9
REMARK VINA RESULT:      -7.1      4.056      6.542
REMARK  Name = 
REMARK  8 active torsions:
REMARK  status: ('A' for Active; 'I' for Inactive)
REMARK    1  A    between atoms: C_1  and  C_2
REMARK    2  A    between atoms: C_1  and  O_4
REMARK    3  A    between atoms: C_2  and  O_10
REMARK    4  A    between atoms: C_3  and  C_18
REMARK    5  A    between atoms: O_4  and  C_8
REMARK    6  A    between atoms: O_10  and  C_21
REMARK    7  A    between atoms: C_18  and  C_22
REMARK    8  A    between atoms: C_21  and  C_22
REMARK                            x       y       z     vdW  Elec       q    Type
REMARK                         _______ _______ _______ _____ _____    ______ ____
ROOT
ATOM      1  C   UNL     1     105.978 142.018 159.776  0.00  0.00    +0.000 C 
ATOM      2  C   UNL     1     106.363 141.019 160.222  0.00  0.00    +0.000 C 
ATOM      3  C   UNL     1     105.117 141.443 159.267  0.00  0.00    +0.000 C 
ENDROOT
BRANCH   1   4
ATOM      4  C   UNL     1     105.594 143.029 159.328  0.00  0.00    +0.000 C 
ATOM      5  O   UNL     1     104.712 143.547 159.766  0.00  0.00    +0.000 OA
BRANCH   4   6
ATOM      6  O   UNL     1     106.123 143.514 158.418  0.00  0.00    +0.000 OA
BRANCH   6   7
ATOM      7  C   UNL     1     105.494 144.111 157.657  0.00  0.00    +0.000 C 
BRANCH   7   8
ATOM      8  C   UNL     1     105.585 143.916 156.525  0.00  0.00    +0.000 C 
BRANCH   8   9
ATOM      9  C   UNL     1     104.797 143.294 155.963  0.00  0.00    +0.000 C 
BRANCH   9  10
ATOM     10  C   UNL     1     105.107 142.565 155.131  0.00  0.00    +0.000 C 
ATOM     11  N   UNL     1     104.676 141.495 155.079  0.00  0.00    +0.000 N 
ATOM     12  O   UNL     1     105.869 142.920 154.332  0.00  0.00    +0.000 OA
ATOM     13  C   UNL     1     103.933 141.165 155.869  0.00  0.00    +0.000 C 
ATOM     14  C   UNL     1     105.012 140.788 154.227  0.00  0.00    +0.000 C 
ENDBRANCH   9  10
ENDBRANCH   8   9
ENDBRANCH   7   8
ENDBRANCH   6   7
ENDBRANCH   4   6
ENDBRANCH   1   4
BRANCH   1  15
ATOM     15  O   UNL     1     106.858 142.584 160.300  0.00  0.00    +0.000 OA
BRANCH  15  16
ATOM     16  C   UNL     1     106.962 142.546 161.465  0.00  0.00    +0.000 A 
ATOM     17  C   UNL     1     107.154 142.494 163.772  0.00  0.00    +0.000 A 
ATOM     18 CL   UNL     1     107.255 142.461 164.948  0.00  0.00    +0.000 Cl
ATOM     19  C   UNL     1     106.496 143.398 162.118  0.00  0.00    +0.000 A 
ATOM     20  C   UNL     1     107.520 141.679 161.993  0.00  0.00    +0.000 A 
ATOM     21  C   UNL     1     107.618 141.645 163.126  0.00  0.00    +0.000 A 
ATOM     22  C   UNL     1     106.591 143.370 163.254  0.00  0.00    +0.000 A 
ENDBRANCH  15  16
ENDBRANCH   1  15
TORSDOF 8
ENDMDL
MODEL 10
REMARK VINA RESULT:      -6.9     42.365     43.882
REMARK  Name = 
REMARK  8 active torsions:
REMARK  status: ('A' for Active; 'I' for Inactive)
REMARK    1  A    between atoms: C_1  and  C_2
REMARK    2  A    between atoms: C_1  and  O_4
REMARK    3  A    between atoms: C_2  and  O_10
REMARK    4  A    between atoms: C_3  and  C_18
REMARK    5  A    between atoms: O_4  and  C_8
REMARK    6  A    between atoms: O_10  and  C_21
REMARK    7  A    between atoms: C_18  and  C_22
REMARK    8  A    between atoms: C_21  and  C_22
REMARK                            x       y       z     vdW  Elec       q    Type
REMARK                         _______ _______ _______ _____ _____    ______ ____
ROOT
ATOM      1  C   UNL     1     139.057 133.827 188.128  0.00  0.00    +0.000 C 
ATOM      2  C   UNL     1     138.575 134.734 188.665  0.00  0.00    +0.000 C 
ATOM      3  C   UNL     1     139.161 134.465 187.173  0.00  0.00    +0.000 C 
ENDROOT
BRANCH   1   4
ATOM      4  C   UNL     1     139.543 132.908 187.590  0.00  0.00    +0.000 C 
ATOM      5  O   UNL     1     139.061 131.906 187.626  0.00  0.00    +0.000 OA
BRANCH   4   6
ATOM      6  O   UNL     1     140.538 133.020 187.008  0.00  0.00    +0.000 OA
BRANCH   6   7
ATOM      7  C   UNL     1     140.951 132.114 186.423  0.00  0.00    +0.000 C 
BRANCH   7   8
ATOM      8  C   UNL     1     141.544 132.257 185.444  0.00  0.00    +0.000 C 
BRANCH   8   9
ATOM      9  C   UNL     1     142.108 131.380 184.959  0.00  0.00    +0.000 C 
BRANCH   9  10
ATOM     10  C   UNL     1     142.042 131.194 183.827  0.00  0.00    +0.000 C 
ATOM     11  N   UNL     1     142.397 130.199 183.360  0.00  0.00    +0.000 N 
ATOM     12  O   UNL     1     141.607 132.027 183.147  0.00  0.00    +0.000 OA
ATOM     13  C   UNL     1     142.820 129.396 184.039  0.00  0.00    +0.000 C 
ATOM     14  C   UNL     1     142.315 130.047 182.216  0.00  0.00    +0.000 C 
ENDBRANCH   9  10
ENDBRANCH   8   9
ENDBRANCH   7   8
ENDBRANCH   6   7
ENDBRANCH   4   6
ENDBRANCH   1   4
BRANCH   1  15
ATOM     15  O   UNL     1     138.943 133.195 189.106  0.00  0.00    +0.000 OA
BRANCH  15  16
ATOM     16  C   UNL     1     139.378 133.600 190.115  0.00  0.00    +0.000 A 
ATOM     17  C   UNL     1     140.264 134.400 192.098  0.00  0.00    +0.000 A 
ATOM     18 CL   UNL     1     140.709 134.808 193.113  0.00  0.00    +0.000 Cl
ATOM     19  C   UNL     1     140.527 133.797 190.214  0.00  0.00    +0.000 A 
ATOM     20  C   UNL     1     138.694 133.812 191.024  0.00  0.00    +0.000 A 
ATOM     21  C   UNL     1     139.121 134.205 192.003  0.00  0.00    +0.000 A 
ATOM     22  C   UNL     1     140.962 134.191 191.192  0.00  0.00    +0.000 A 
ENDBRANCH  15  16
ENDBRANCH   1  15
TORSDOF 8
ENDMDL
MODEL 11
REMARK VINA RESULT:      -6.9     42.530     44.184
REMARK  Name = 
REMARK  8 active torsions:
REMARK  status: ('A' for Active; 'I' for Inactive)
REMARK    1  A    between atoms: C_1  and  C_2
REMARK    2  A    between atoms: C_1  and  O_4
REMARK    3  A    between atoms: C_2  and  O_10
REMARK    4  A    between atoms: C_3  and  C_18
REMARK    5  A    between atoms: O_4  and  C_8
REMARK    6  A    between atoms: O_10  and  C_21
REMARK    7  A    between atoms: C_18  and  C_22
REMARK    8  A    between atoms: C_21  and  C_22
REMARK                            x       y       z     vdW  Elec       q    Type
REMARK                         _______ _______ _______ _____ _____    ______ ____
ROOT
ATOM      1  C   UNL     1     138.947 134.703 191.593  0.00  0.00    +0.000 C 
ATOM      2  C   UNL     1     138.366 135.324 192.381  0.00  0.00    +0.000 C 
ATOM      3  C   UNL     1     138.025 134.020 191.471  0.00  0.00    +0.000 C 
ENDROOT
BRANCH   1   4
ATOM      4  C   UNL     1     139.538 134.079 190.798  0.00  0.00    +0.000 C 
ATOM      5  O   UNL     1     140.522 133.625 191.047  0.00  0.00    +0.000 OA
BRANCH   4   6
ATOM      6  O   UNL     1     139.112 133.921 189.732  0.00  0.00    +0.000 OA
BRANCH   6   7
ATOM      7  C   UNL     1     139.770 133.407 188.935  0.00  0.00    +0.000 C 
BRANCH   7   8
ATOM      8  C   UNL     1     139.307 132.725 188.130  0.00  0.00    +0.000 C 
BRANCH   8   9
ATOM      9  C   UNL     1     139.967 132.184 187.359  0.00  0.00    +0.000 C 
BRANCH   9  10
ATOM     10  C   UNL     1     139.553 131.303 186.747  0.00  0.00    +0.000 C 
ATOM     11  N   UNL     1     140.243 130.655 186.085  0.00  0.00    +0.000 N 
ATOM     12  O   UNL     1     138.419 131.068 186.801  0.00  0.00    +0.000 OA
ATOM     13  C   UNL     1     141.350 130.899 186.044  0.00  0.00    +0.000 C 
ATOM     14  C   UNL     1     139.792 129.776 185.483  0.00  0.00    +0.000 C 
ENDBRANCH   9  10
ENDBRANCH   8   9
ENDBRANCH   7   8
ENDBRANCH   6   7
ENDBRANCH   4   6
ENDBRANCH   1   4
BRANCH   1  15
ATOM     15  O   UNL     1     139.872 135.406 191.730  0.00  0.00    +0.000 OA
BRANCH  15  16
ATOM     16  C   UNL     1     139.754 136.560 191.567  0.00  0.00    +0.000 A 
ATOM     17  C   UNL     1     139.522 138.837 191.220  0.00  0.00    +0.000 A 
ATOM     18 CL   UNL     1     139.403 140.000 191.050  0.00  0.00    +0.000 Cl
ATOM     19  C   UNL     1     139.686 136.990 190.481  0.00  0.00    +0.000 A 
ATOM     20  C   UNL     1     139.703 137.292 192.463  0.00  0.00    +0.000 A 
ATOM     21  C   UNL     1     139.589 138.413 192.301  0.00  0.00    +0.000 A 
ATOM     22  C   UNL     1     139.572 138.112 190.312  0.00  0.00    +0.000 A 
ENDBRANCH  15  16
ENDBRANCH   1  15
TORSDOF 8
ENDMDL
MODEL 12
REMARK VINA RESULT:      -6.8      3.862      6.344
REMARK  Name = 
REMARK  8 active torsions:
REMARK  status: ('A' for Active; 'I' for Inactive)
REMARK    1  A    between atoms: C_1  and  C_2
REMARK    2  A    between atoms: C_1  and  O_4
REMARK    3  A    between atoms: C_2  and  O_10
REMARK    4  A    between atoms: C_3  and  C_18
REMARK    5  A    between atoms: O_4  and  C_8
REMARK    6  A    between atoms: O_10  and  C_21
REMARK    7  A    between atoms: C_18  and  C_22
REMARK    8  A    between atoms: C_21  and  C_22
REMARK                            x       y       z     vdW  Elec       q    Type
REMARK                         _______ _______ _______ _____ _____    ______ ____
ROOT
ATOM      1  C   UNL     1     105.895 140.175 161.184  0.00  0.00    +0.000 C 
ATOM      2  C   UNL     1     105.832 139.570 162.171  0.00  0.00    +0.000 C 
ATOM      3  C   UNL     1     104.995 139.579 160.776  0.00  0.00    +0.000 C 
ENDROOT
BRANCH   1   4
ATOM      4  C   UNL     1     105.963 140.790 160.190  0.00  0.00    +0.000 C 
ATOM      5  O   UNL     1     106.945 140.981 159.705  0.00  0.00    +0.000 OA
BRANCH   4   6
ATOM      6  O   UNL     1     105.008 141.212 159.687  0.00  0.00    +0.000 OA
BRANCH   6   7
ATOM      7  C   UNL     1     105.105 141.776 158.685  0.00  0.00    +0.000 C 
BRANCH   7   8
ATOM      8  C   UNL     1     104.466 141.480 157.771  0.00  0.00    +0.000 C 
BRANCH   8   9
ATOM      9  C   UNL     1     104.299 142.213 156.901  0.00  0.00    +0.000 C 
BRANCH   9  10
ATOM     10  C   UNL     1     104.114 141.826 155.835  0.00  0.00    +0.000 C 
ATOM     11  N   UNL     1     104.029 142.551 154.939  0.00  0.00    +0.000 N 
ATOM     12  O   UNL     1     104.013 140.684 155.664  0.00  0.00    +0.000 OA
ATOM     13  C   UNL     1     104.131 143.665 155.125  0.00  0.00    +0.000 C 
ATOM     14  C   UNL     1     103.843 142.126 153.880  0.00  0.00    +0.000 C 
ENDBRANCH   9  10
ENDBRANCH   8   9
ENDBRANCH   7   8
ENDBRANCH   6   7
ENDBRANCH   4   6
ENDBRANCH   1   4
BRANCH   1  15
ATOM     15  O   UNL     1     106.807 140.769 161.614  0.00  0.00    +0.000 OA
BRANCH  15  16
ATOM     16  C   UNL     1     106.653 141.496 162.519  0.00  0.00    +0.000 A 
ATOM     17  C   UNL     1     106.350 142.912 164.326  0.00  0.00    +0.000 A 
ATOM     18 CL   UNL     1     106.194 143.640 165.243  0.00  0.00    +0.000 Cl
ATOM     19  C   UNL     1     106.631 141.070 163.609  0.00  0.00    +0.000 A 
ATOM     20  C   UNL     1     106.520 142.635 162.361  0.00  0.00    +0.000 A 
ATOM     21  C   UNL     1     106.370 143.338 163.244  0.00  0.00    +0.000 A 
ATOM     22  C   UNL     1     106.482 141.769 164.498  0.00  0.00    +0.000 A 
ENDBRANCH  15  16
ENDBRANCH   1  15
TORSDOF 8
ENDMDL
MODEL 13
REMARK VINA RESULT:      -6.7     42.164     43.502
REMARK  Name = 
REMARK  8 active torsions:
REMARK  status: ('A' for Active; 'I' for Inactive)
REMARK    1  A    between atoms: C_1  and  C_2
REMARK    2  A    between atoms: C_1  and  O_4
REMARK    3  A    between atoms: C_2  and  O_10
REMARK    4  A    between atoms: C_3  and  C_18
REMARK    5  A    between atoms: O_4  and  C_8
REMARK    6  A    between atoms: O_10  and  C_21
REMARK    7  A    between atoms: C_18  and  C_22
REMARK    8  A    between atoms: C_21  and  C_22
REMARK                            x       y       z     vdW  Elec       q    Type
REMARK                         _______ _______ _______ _____ _____    ______ ____
ROOT
ATOM      1  C   UNL     1     139.536 132.272 185.937  0.00  0.00    +0.000 C 
ATOM      2  C   UNL     1     139.511 132.170 184.782  0.00  0.00    +0.000 C 
ATOM      3  C   UNL     1     139.299 133.396 185.829  0.00  0.00    +0.000 C 
ENDROOT
BRANCH   1   4
ATOM      4  C   UNL     1     139.563 132.370 187.103  0.00  0.00    +0.000 C 
ATOM      5  O   UNL     1     139.012 131.652 187.748  0.00  0.00    +0.000 OA
BRANCH   4   6
ATOM      6  O   UNL     1     140.166 133.219 187.613  0.00  0.00    +0.000 OA
BRANCH   6   7
ATOM      7  C   UNL     1     140.040 133.393 188.747  0.00  0.00    +0.000 C 
BRANCH   7   8
ATOM      8  C   UNL     1     140.416 134.361 189.247  0.00  0.00    +0.000 C 
BRANCH   8   9
ATOM      9  C   UNL     1     140.495 134.448 190.391  0.00  0.00    +0.000 C 
BRANCH   9  10
ATOM     10  C   UNL     1     140.119 135.387 190.936  0.00  0.00    +0.000 C 
ATOM     11  N   UNL     1     140.152 135.467 192.088  0.00  0.00    +0.000 N 
ATOM     12  O   UNL     1     139.698 136.267 190.309  0.00  0.00    +0.000 OA
ATOM     13  C   UNL     1     140.566 134.596 192.685  0.00  0.00    +0.000 C 
ATOM     14  C   UNL     1     139.765 136.427 192.603  0.00  0.00    +0.000 C 
ENDBRANCH   9  10
ENDBRANCH   8   9
ENDBRANCH   7   8
ENDBRANCH   6   7
ENDBRANCH   4   6
ENDBRANCH   1   4
BRANCH   1  15
ATOM     15  O   UNL     1     139.777 131.131 186.026  0.00  0.00    +0.000 OA
BRANCH  15  16
ATOM     16  C   UNL     1     140.615 130.659 185.359  0.00  0.00    +0.000 A 
ATOM     17  C   UNL     1     142.290 129.739 184.052  0.00  0.00    +0.000 A 
ATOM     18 CL   UNL     1     143.140 129.266 183.382  0.00  0.00    +0.000 Cl
ATOM     19  C   UNL     1     141.736 130.934 185.552  0.00  0.00    +0.000 A 
ATOM     20  C   UNL     1     140.360 129.920 184.504  0.00  0.00    +0.000 A 
ATOM     21  C   UNL     1     141.177 129.464 183.857  0.00  0.00    +0.000 A 
ATOM     22  C   UNL     1     142.560 130.480 184.908  0.00  0.00    +0.000 A 
ENDBRANCH  15  16
ENDBRANCH   1  15
TORSDOF 8
ENDMDL
MODEL 14
REMARK VINA RESULT:      -6.6     72.341     74.250
REMARK  Name = 
REMARK  8 active torsions:
REMARK  status: ('A' for Active; 'I' for Inactive)
REMARK    1  A    between atoms: C_1  and  C_2
REMARK    2  A    between atoms: C_1  and  O_4
REMARK    3  A    between atoms: C_2  and  O_10
REMARK    4  A    between atoms: C_3  and  C_18
REMARK    5  A    between atoms: O_4  and  C_8
REMARK    6  A    between atoms: O_10  and  C_21
REMARK    7  A    between atoms: C_18  and  C_22
REMARK    8  A    between atoms: C_21  and  C_22
REMARK                            x       y       z     vdW  Elec       q    Type
REMARK                         _______ _______ _______ _____ _____    ______ ____
ROOT
ATOM      1  C   UNL     1     153.629 143.770 106.501  0.00  0.00    +0.000 C 
ATOM      2  C   UNL     1     154.741 143.682 106.183  0.00  0.00    +0.000 C 
ATOM      3  C   UNL     1     153.486 142.650 106.261  0.00  0.00    +0.000 C 
ENDROOT
BRANCH   1   4
ATOM      4  C   UNL     1     152.508 143.864 106.824  0.00  0.00    +0.000 C 
ATOM      5  O   UNL     1     152.230 144.355 107.782  0.00  0.00    +0.000 OA
BRANCH   4   6
ATOM      6  O   UNL     1     151.661 143.447 106.152  0.00  0.00    +0.000 OA
BRANCH   6   7
ATOM      7  C   UNL     1     150.677 144.042 106.057  0.00  0.00    +0.000 C 
BRANCH   7   8
ATOM      8  C   UNL     1     150.096 144.079 105.061  0.00  0.00    +0.000 C 
BRANCH   8   9
ATOM      9  C   UNL     1     149.308 143.283 104.803  0.00  0.00    +0.000 C 
BRANCH   9  10
ATOM     10  C   UNL     1     148.912 143.175 103.729  0.00  0.00    +0.000 C 
ATOM     11  N   UNL     1     147.905 142.655 103.510  0.00  0.00    +0.000 N 
ATOM     12  O   UNL     1     149.544 143.599 102.855  0.00  0.00    +0.000 OA
ATOM     13  C   UNL     1     147.300 142.245 104.377  0.00  0.00    +0.000 C 
ATOM     14  C   UNL     1     147.538 142.564 102.417  0.00  0.00    +0.000 C 
ENDBRANCH   9  10
ENDBRANCH   8   9
ENDBRANCH   7   8
ENDBRANCH   6   7
ENDBRANCH   4   6
ENDBRANCH   1   4
BRANCH   1  15
ATOM     15  O   UNL     1     153.794 144.903 106.739  0.00  0.00    +0.000 OA
BRANCH  15  16
ATOM     16  C   UNL     1     154.150 145.630 105.893  0.00  0.00    +0.000 A 
ATOM     17  C   UNL     1     154.830 147.071 104.214  0.00  0.00    +0.000 A 
ATOM     18 CL   UNL     1     155.185 147.805 103.359  0.00  0.00    +0.000 Cl
ATOM     19  C   UNL     1     153.361 146.207 105.252  0.00  0.00    +0.000 A 
ATOM     20  C   UNL     1     155.276 145.791 105.673  0.00  0.00    +0.000 A 
ATOM     21  C   UNL     1     155.619 146.498 104.849  0.00  0.00    +0.000 A 
ATOM     22  C   UNL     1     153.697 146.917 104.425  0.00  0.00    +0.000 A 
ENDBRANCH  15  16
ENDBRANCH   1  15
TORSDOF 8
ENDMDL
MODEL 15
REMARK VINA RESULT:      -6.5     73.019     74.875
REMARK  Name = 
REMARK  8 active torsions:
REMARK  status: ('A' for Active; 'I' for Inactive)
REMARK    1  A    between atoms: C_1  and  C_2
REMARK    2  A    between atoms: C_1  and  O_4
REMARK    3  A    between atoms: C_2  and  O_10
REMARK    4  A    between atoms: C_3  and  C_18
REMARK    5  A    between atoms: O_4  and  C_8
REMARK    6  A    between atoms: O_10  and  C_21
REMARK    7  A    between atoms: C_18  and  C_22
REMARK    8  A    between atoms: C_21  and  C_22
REMARK                            x       y       z     vdW  Elec       q    Type
REMARK                         _______ _______ _______ _____ _____    ______ ____
ROOT
ATOM      1  C   UNL     1     154.916 146.130 105.410  0.00  0.00    +0.000 C 
ATOM      2  C   UNL     1     156.063 145.970 105.358  0.00  0.00    +0.000 C 
ATOM      3  C   UNL     1     154.951 146.630 104.371  0.00  0.00    +0.000 C 
ENDROOT
BRANCH   1   4
ATOM      4  C   UNL     1     153.758 146.288 105.468  0.00  0.00    +0.000 C 
ATOM      5  O   UNL     1     153.297 146.815 106.332  0.00  0.00    +0.000 OA
BRANCH   4   6
ATOM      6  O   UNL     1     153.063 145.899 104.626  0.00  0.00    +0.000 OA
BRANCH   6   7
ATOM      7  C   UNL     1     151.961 145.660 104.874  0.00  0.00    +0.000 C 
BRANCH   7   8
ATOM      8  C   UNL     1     151.247 145.243 104.070  0.00  0.00    +0.000 C 
BRANCH   8   9
ATOM      9  C   UNL     1     150.837 144.171 104.138  0.00  0.00    +0.000 C 
BRANCH   9  10
ATOM     10  C   UNL     1     150.089 143.778 103.359  0.00  0.00    +0.000 C 
ATOM     11  N   UNL     1     149.237 143.057 103.655  0.00  0.00    +0.000 N 
ATOM     12  O   UNL     1     150.200 144.118 102.256  0.00  0.00    +0.000 OA
ATOM     13  C   UNL     1     149.143 142.735 104.738  0.00  0.00    +0.000 C 
ATOM     14  C   UNL     1     148.502 142.681 102.844  0.00  0.00    +0.000 C 
ENDBRANCH   9  10
ENDBRANCH   8   9
ENDBRANCH   7   8
ENDBRANCH   6   7
ENDBRANCH   4   6
ENDBRANCH   1   4
BRANCH   1  15
ATOM     15  O   UNL     1     154.899 145.619 106.463  0.00  0.00    +0.000 OA
BRANCH  15  16
ATOM     16  C   UNL     1     155.281 144.519 106.582  0.00  0.00    +0.000 A 
ATOM     17  C   UNL     1     156.058 142.352 106.826  0.00  0.00    +0.000 A 
ATOM     18 CL   UNL     1     156.449 141.244 106.948  0.00  0.00    +0.000 Cl
ATOM     19  C   UNL     1     156.362 144.319 106.982  0.00  0.00    +0.000 A 
ATOM     20  C   UNL     1     154.608 143.616 106.311  0.00  0.00    +0.000 A 
ATOM     21  C   UNL     1     154.983 142.547 106.428  0.00  0.00    +0.000 A 
ATOM     22  C   UNL     1     156.743 143.251 107.102  0.00  0.00    +0.000 A 
ENDBRANCH  15  16
ENDBRANCH   1  15
TORSDOF 8
ENDMDL
MODEL 16
REMARK VINA RESULT:      -6.5     42.532     44.405
REMARK  Name = 
REMARK  8 active torsions:
REMARK  status: ('A' for Active; 'I' for Inactive)
REMARK    1  A    between atoms: C_1  and  C_2
REMARK    2  A    between atoms: C_1  and  O_4
REMARK    3  A    between atoms: C_2  and  O_10
REMARK    4  A    between atoms: C_3  and  C_18
REMARK    5  A    between atoms: O_4  and  C_8
REMARK    6  A    between atoms: O_10  and  C_21
REMARK    7  A    between atoms: C_18  and  C_22
REMARK    8  A    between atoms: C_21  and  C_22
REMARK                            x       y       z     vdW  Elec       q    Type
REMARK                         _______ _______ _______ _____ _____    ______ ____
ROOT
ATOM      1  C   UNL     1     139.895 140.390 192.401  0.00  0.00    +0.000 C 
ATOM      2  C   UNL     1     139.896 141.424 192.926  0.00  0.00    +0.000 C 
ATOM      3  C   UNL     1     141.046 140.441 192.328  0.00  0.00    +0.000 C 
ENDROOT
BRANCH   1   4
ATOM      4  C   UNL     1     139.889 139.347 191.870  0.00  0.00    +0.000 C 
ATOM      5  O   UNL     1     140.426 139.193 190.909  0.00  0.00    +0.000 OA
BRANCH   4   6
ATOM      6  O   UNL     1     139.323 138.448 192.335  0.00  0.00    +0.000 OA
BRANCH   6   7
ATOM      7  C   UNL     1     139.603 137.378 192.006  0.00  0.00    +0.000 C 
BRANCH   7   8
ATOM      8  C   UNL     1     139.004 136.465 192.376  0.00  0.00    +0.000 C 
BRANCH   8   9
ATOM      9  C   UNL     1     139.438 135.403 192.309  0.00  0.00    +0.000 C 
BRANCH   9  10
ATOM     10  C   UNL     1     138.988 134.629 191.588  0.00  0.00    +0.000 C 
ATOM     11  N   UNL     1     139.653 133.854 191.048  0.00  0.00    +0.000 N 
ATOM     12  O   UNL     1     137.843 134.633 191.405  0.00  0.00    +0.000 OA
ATOM     13  C   UNL     1     140.771 133.864 191.238  0.00  0.00    +0.000 C 
ATOM     14  C   UNL     1     139.166 133.090 190.329  0.00  0.00    +0.000 C 
ENDBRANCH   9  10
ENDBRANCH   8   9
ENDBRANCH   7   8
ENDBRANCH   6   7
ENDBRANCH   4   6
ENDBRANCH   1   4
BRANCH   1  15
ATOM     15  O   UNL     1     138.729 140.356 192.483  0.00  0.00    +0.000 OA
BRANCH  15  16
ATOM     16  C   UNL     1     138.084 141.184 191.964  0.00  0.00    +0.000 A 
ATOM     17  C   UNL     1     136.803 142.830 190.961  0.00  0.00    +0.000 A 
ATOM     18 CL   UNL     1     136.151 143.667 190.442  0.00  0.00    +0.000 Cl
ATOM     19  C   UNL     1     137.492 141.954 192.616  0.00  0.00    +0.000 A 
ATOM     20  C   UNL     1     138.017 141.260 190.810  0.00  0.00    +0.000 A 
ATOM     21  C   UNL     1     137.390 142.066 190.309  0.00  0.00    +0.000 A 
ATOM     22  C   UNL     1     136.862 142.764 192.120  0.00  0.00    +0.000 A 
ENDBRANCH  15  16
ENDBRANCH   1  15
TORSDOF 8
ENDMDL
MODEL 17
REMARK VINA RESULT:      -6.5      4.754      6.559
REMARK  Name = 
REMARK  8 active torsions:
REMARK  status: ('A' for Active; 'I' for Inactive)
REMARK    1  A    between atoms: C_1  and  C_2
REMARK    2  A    between atoms: C_1  and  O_4
REMARK    3  A    between atoms: C_2  and  O_10
REMARK    4  A    between atoms: C_3  and  C_18
REMARK    5  A    between atoms: O_4  and  C_8
REMARK    6  A    between atoms: O_10  and  C_21
REMARK    7  A    between atoms: C_18  and  C_22
REMARK    8  A    between atoms: C_21  and  C_22
REMARK                            x       y       z     vdW  Elec       q    Type
REMARK                         _______ _______ _______ _____ _____    ______ ____
ROOT
ATOM      1  C   UNL     1     105.809 142.063 159.516  0.00  0.00    +0.000 C 
ATOM      2  C   UNL     1     106.127 141.009 159.883  0.00  0.00    +0.000 C 
ATOM      3  C   UNL     1     104.855 141.601 159.060  0.00  0.00    +0.000 C 
ENDROOT
BRANCH   1   4
ATOM      4  C   UNL     1     105.493 143.128 159.149  0.00  0.00    +0.000 C 
ATOM      5  O   UNL     1     104.615 143.647 159.593  0.00  0.00    +0.000 OA
BRANCH   4   6
ATOM      6  O   UNL     1     106.087 143.667 158.313  0.00  0.00    +0.000 OA
BRANCH   6   7
ATOM      7  C   UNL     1     105.681 144.661 157.888  0.00  0.00    +0.000 C 
BRANCH   7   8
ATOM      8  C   UNL     1     106.254 145.238 157.071  0.00  0.00    +0.000 C 
BRANCH   8   9
ATOM      9  C   UNL     1     106.399 146.377 157.138  0.00  0.00    +0.000 C 
BRANCH   9  10
ATOM     10  C   UNL     1     106.919 146.953 156.290  0.00  0.00    +0.000 C 
ATOM     11  N   UNL     1     107.449 147.960 156.486  0.00  0.00    +0.000 N 
ATOM     12  O   UNL     1     106.907 146.507 155.220  0.00  0.00    +0.000 OA
ATOM     13  C   UNL     1     107.451 148.382 157.539  0.00  0.00    +0.000 C 
ATOM     14  C   UNL     1     107.962 148.513 155.610  0.00  0.00    +0.000 C 
ENDBRANCH   9  10
ENDBRANCH   8   9
ENDBRANCH   7   8
ENDBRANCH   6   7
ENDBRANCH   4   6
ENDBRANCH   1   4
BRANCH   1  15
ATOM     15  O   UNL     1     106.782 142.512 159.986  0.00  0.00    +0.000 OA
BRANCH  15  16
ATOM     16  C   UNL     1     106.918 142.517 161.149  0.00  0.00    +0.000 A 
ATOM     17  C   UNL     1     107.198 142.503 163.447  0.00  0.00    +0.000 A 
ATOM     18 CL   UNL     1     107.338 142.502 164.620  0.00  0.00    +0.000 Cl
ATOM     19  C   UNL     1     107.436 141.611 161.677  0.00  0.00    +0.000 A 
ATOM     20  C   UNL     1     106.548 143.405 161.795  0.00  0.00    +0.000 A 
ATOM     21  C   UNL     1     106.682 143.405 162.925  0.00  0.00    +0.000 A 
ATOM     22  C   UNL     1     107.574 141.606 162.809  0.00  0.00    +0.000 A 
ENDBRANCH  15  16
ENDBRANCH   1  15
TORSDOF 8
ENDMDL
MODEL 18
REMARK VINA RESULT:      -6.5      4.928      7.545
REMARK  Name = 
REMARK  8 active torsions:
REMARK  status: ('A' for Active; 'I' for Inactive)
REMARK    1  A    between atoms: C_1  and  C_2
REMARK    2  A    between atoms: C_1  and  O_4
REMARK    3  A    between atoms: C_2  and  O_10
REMARK    4  A    between atoms: C_3  and  C_18
REMARK    5  A    between atoms: O_4  and  C_8
REMARK    6  A    between atoms: O_10  and  C_21
REMARK    7  A    between atoms: C_18  and  C_22
REMARK    8  A    between atoms: C_21  and  C_22
REMARK                            x       y       z     vdW  Elec       q    Type
REMARK                         _______ _______ _______ _____ _____    ______ ____
ROOT
ATOM      1  C   UNL     1     105.926 142.010 160.139  0.00  0.00    +0.000 C 
ATOM      2  C   UNL     1     106.709 142.503 160.838  0.00  0.00    +0.000 C 
ATOM      3  C   UNL     1     106.723 141.244 159.809  0.00  0.00    +0.000 C 
ENDROOT
BRANCH   1   4
ATOM      4  C   UNL     1     105.132 141.517 159.435  0.00  0.00    +0.000 C 
ATOM      5  O   UNL     1     104.269 140.955 159.854  0.00  0.00    +0.000 OA
BRANCH   4   6
ATOM      6  O   UNL     1     105.227 141.602 158.283  0.00  0.00    +0.000 OA
BRANCH   6   7
ATOM      7  C   UNL     1     104.321 141.323 157.624  0.00  0.00    +0.000 C 
BRANCH   7   8
ATOM      8  C   UNL     1     104.114 141.873 156.632  0.00  0.00    +0.000 C 
BRANCH   8   9
ATOM      9  C   UNL     1     104.909 142.550 156.151  0.00  0.00    +0.000 C 
BRANCH   9  10
ATOM     10  C   UNL     1     104.785 142.926 155.072  0.00  0.00    +0.000 C 
ATOM     11  N   UNL     1     105.116 143.989 154.764  0.00  0.00    +0.000 N 
ATOM     12  O   UNL     1     104.317 142.217 154.282  0.00  0.00    +0.000 OA
ATOM     13  C   UNL     1     105.571 144.669 155.549  0.00  0.00    +0.000 C 
ATOM     14  C   UNL     1     104.975 144.334 153.669  0.00  0.00    +0.000 C 
ENDBRANCH   9  10
ENDBRANCH   8   9
ENDBRANCH   7   8
ENDBRANCH   6   7
ENDBRANCH   4   6
ENDBRANCH   1   4
BRANCH   1  15
ATOM     15  O   UNL     1     105.131 142.796 160.486  0.00  0.00    +0.000 OA
BRANCH  15  16
ATOM     16  C   UNL     1     105.361 143.939 160.384  0.00  0.00    +0.000 A 
ATOM     17  C   UNL     1     105.816 146.202 160.208  0.00  0.00    +0.000 A 
ATOM     18 CL   UNL     1     106.047 147.356 160.111  0.00  0.00    +0.000 Cl
ATOM     19  C   UNL     1     105.526 144.587 161.344  0.00  0.00    +0.000 A 
ATOM     20  C   UNL     1     105.428 144.450 159.346  0.00  0.00    +0.000 A 
ATOM     21  C   UNL     1     105.651 145.562 159.251  0.00  0.00    +0.000 A 
ATOM     22  C   UNL     1     105.750 145.701 161.255  0.00  0.00    +0.000 A 
ENDBRANCH  15  16
ENDBRANCH   1  15
TORSDOF 8
ENDMDL
MODEL 19
REMARK VINA RESULT:      -6.3      6.255      7.808
REMARK  Name = 
REMARK  8 active torsions:
REMARK  status: ('A' for Active; 'I' for Inactive)
REMARK    1  A    between atoms: C_1  and  C_2
REMARK    2  A    between atoms: C_1  and  O_4
REMARK    3  A    between atoms: C_2  and  O_10
REMARK    4  A    between atoms: C_3  and  C_18
REMARK    5  A    between atoms: O_4  and  C_8
REMARK    6  A    between atoms: O_10  and  C_21
REMARK    7  A    between atoms: C_18  and  C_22
REMARK    8  A    between atoms: C_21  and  C_22
REMARK                            x       y       z     vdW  Elec       q    Type
REMARK                         _______ _______ _______ _____ _____    ______ ____
ROOT
ATOM      1  C   UNL     1     104.888 144.176 153.532  0.00  0.00    +0.000 C 
ATOM      2  C   UNL     1     104.092 143.405 153.191  0.00  0.00    +0.000 C 
ATOM      3  C   UNL     1     104.258 145.016 153.054  0.00  0.00    +0.000 C 
ENDROOT
BRANCH   1   4
ATOM      4  C   UNL     1     105.693 144.951 153.879  0.00  0.00    +0.000 C 
ATOM      5  O   UNL     1     106.711 144.955 153.430  0.00  0.00    +0.000 OA
BRANCH   4   6
ATOM      6  O   UNL     1     105.450 145.733 154.699  0.00  0.00    +0.000 OA
BRANCH   6   7
ATOM      7  C   UNL     1     106.313 146.178 155.323  0.00  0.00    +0.000 C 
BRANCH   7   8
ATOM      8  C   UNL     1     106.453 145.896 156.433  0.00  0.00    +0.000 C 
BRANCH   8   9
ATOM      9  C   UNL     1     106.129 146.612 157.273  0.00  0.00    +0.000 C 
BRANCH   9  10
ATOM     10  C   UNL     1     105.899 146.215 158.326  0.00  0.00    +0.000 C 
ATOM     11  N   UNL     1     105.742 146.932 159.218  0.00  0.00    +0.000 N 
ATOM     12  O   UNL     1     105.825 145.069 158.489  0.00  0.00    +0.000 OA
ATOM     13  C   UNL     1     105.819 148.050 159.041  0.00  0.00    +0.000 C 
ATOM     14  C   UNL     1     105.512 146.497 160.264  0.00  0.00    +0.000 C 
ENDBRANCH   9  10
ENDBRANCH   8   9
ENDBRANCH   7   8
ENDBRANCH   6   7
ENDBRANCH   4   6
ENDBRANCH   1   4
BRANCH   1  15
ATOM     15  O   UNL     1     105.513 143.311 154.012  0.00  0.00    +0.000 OA
BRANCH  15  16
ATOM     16  C   UNL     1     105.003 142.574 154.766  0.00  0.00    +0.000 A 
ATOM     17  C   UNL     1     103.996 141.099 156.238  0.00  0.00    +0.000 A 
ATOM     18 CL   UNL     1     103.482 140.352 156.995  0.00  0.00    +0.000 Cl
ATOM     19  C   UNL     1     104.732 141.489 154.424  0.00  0.00    +0.000 A 
ATOM     20  C   UNL     1     104.759 142.897 155.851  0.00  0.00    +0.000 A 
ATOM     21  C   UNL     1     104.264 142.178 156.581  0.00  0.00    +0.000 A 
ATOM     22  C   UNL     1     104.236 140.764 155.151  0.00  0.00    +0.000 A 
ENDBRANCH  15  16
ENDBRANCH   1  15
TORSDOF 8
ENDMDL
MODEL 20
REMARK VINA RESULT:      -6.2      6.633      8.837
REMARK  Name = 
REMARK  8 active torsions:
REMARK  status: ('A' for Active; 'I' for Inactive)
REMARK    1  A    between atoms: C_1  and  C_2
REMARK    2  A    between atoms: C_1  and  O_4
REMARK    3  A    between atoms: C_2  and  O_10
REMARK    4  A    between atoms: C_3  and  C_18
REMARK    5  A    between atoms: O_4  and  C_8
REMARK    6  A    between atoms: O_10  and  C_21
REMARK    7  A    between atoms: C_18  and  C_22
REMARK    8  A    between atoms: C_21  and  C_22
REMARK                            x       y       z     vdW  Elec       q    Type
REMARK                         _______ _______ _______ _____ _____    ______ ____
ROOT
ATOM      1  C   UNL     1     104.176 141.427 155.972  0.00  0.00    +0.000 C 
ATOM      2  C   UNL     1     103.597 140.839 156.787  0.00  0.00    +0.000 C 
ATOM      3  C   UNL     1     104.216 140.469 155.330  0.00  0.00    +0.000 C 
ENDROOT
BRANCH   1   4
ATOM      4  C   UNL     1     104.760 142.025 155.153  0.00  0.00    +0.000 C 
ATOM      5  O   UNL     1     105.745 141.668 154.781  0.00  0.00    +0.000 OA
BRANCH   4   6
ATOM      6  O   UNL     1     104.325 143.003 154.710  0.00  0.00    +0.000 OA
BRANCH   6   7
ATOM      7  C   UNL     1     104.709 143.374 153.687  0.00  0.00    +0.000 C 
BRANCH   7   8
ATOM      8  C   UNL     1     104.132 144.174 153.088  0.00  0.00    +0.000 C 
BRANCH   8   9
ATOM      9  C   UNL     1     104.148 145.279 153.404  0.00  0.00    +0.000 C 
BRANCH   9  10
ATOM     10  C   UNL     1     104.389 146.104 152.642  0.00  0.00    +0.000 C 
ATOM     11  N   UNL     1     105.059 147.003 152.922  0.00  0.00    +0.000 N 
ATOM     12  O   UNL     1     103.948 146.025 151.573  0.00  0.00    +0.000 OA
ATOM     13  C   UNL     1     105.482 147.065 153.972  0.00  0.00    +0.000 C 
ATOM     14  C   UNL     1     105.281 147.815 152.129  0.00  0.00    +0.000 C 
ENDBRANCH   9  10
ENDBRANCH   8   9
ENDBRANCH   7   8
ENDBRANCH   6   7
ENDBRANCH   4   6
ENDBRANCH   1   4
BRANCH   1  15
ATOM     15  O   UNL     1     104.124 142.387 156.638  0.00  0.00    +0.000 OA
BRANCH  15  16
ATOM     16  C   UNL     1     104.782 142.461 157.604  0.00  0.00    +0.000 A 
ATOM     17  C   UNL     1     106.087 142.633 159.508  0.00  0.00    +0.000 A 
ATOM     18 CL   UNL     1     106.752 142.713 160.481  0.00  0.00    +0.000 Cl
ATOM     19  C   UNL     1     105.351 143.455 157.845  0.00  0.00    +0.000 A 
ATOM     20  C   UNL     1     104.883 141.568 158.334  0.00  0.00    +0.000 A 
ATOM     21  C   UNL     1     105.523 141.644 159.272  0.00  0.00    +0.000 A 
ATOM     22  C   UNL     1     105.994 143.537 158.783  0.00  0.00    +0.000 A 
ENDBRANCH  15  16
ENDBRANCH   1  15
TORSDOF 8
ENDMDL
