REMARK  Name = 
REMARK  12 active torsions:
REMARK  status: ('A' for Active; 'I' for Inactive)
REMARK    1  A    between atoms: N_1  and  C_8
REMARK    2  A    between atoms: C_4  and  N_7
REMARK    3  A    between atoms: C_8  and  C_9
REMARK    4  A    between atoms: C_9  and  C_10
REMARK    5  A    between atoms: C_10  and  C_11
REMARK    6  A    between atoms: C_11  and  C_12
REMARK    7  A    between atoms: C_12  and  C_13
REMARK    8  A    between atoms: N_27  and  C_28
REMARK    9  A    between atoms: C_28  and  C_44
REMARK   10  A    between atoms: C_29  and  C_30
REMARK   11  A    between atoms: C_32  and  C_37
REMARK   12  A    between atoms: C_40  and  C_43
REMARK                            x       y       z     vdW  Elec       q    Type
REMARK                         _______ _______ _______ _____ _____    ______ ____
ROOT
ATOM      1  N   UNL     1       4.286  -0.765   0.000  0.00  0.00    +0.000 NA
ATOM      2  C   UNL     1       4.286  -1.590   0.000  0.00  0.00    +0.000 C 
ATOM      3  C   UNL     1       5.000  -2.002   0.000  0.00  0.00    +0.000 C 
ATOM      4  C   UNL     1       5.715  -1.590   0.000  0.00  0.00    +0.000 C 
ATOM      5  C   UNL     1       5.715  -0.765   0.000  0.00  0.00    +0.000 C 
ATOM      6  C   UNL     1       5.000  -0.352   0.000  0.00  0.00    +0.000 C 
ENDROOT
BRANCH   4   7
ATOM      7  N   UNL     1       6.429  -2.002   0.000  0.00  0.00    +0.000 NA
ATOM      8  C   UNL     1       7.144  -1.590   0.000  0.00  0.00    +0.000 C 
ATOM      9  O   UNL     1       7.144  -0.765   0.000  0.00  0.00    +0.000 OA
BRANCH   8  10
ATOM     10  C   UNL     1       7.858  -2.002   0.000  0.00  0.00    +0.000 A 
ATOM     11  C   UNL     1       7.858  -2.827   0.000  0.00  0.00    +0.000 A 
ATOM     12  C   UNL     1       8.573  -3.240   0.000  0.00  0.00    +0.000 A 
ATOM     13  C   UNL     1       9.287  -2.827   0.000  0.00  0.00    +0.000 A 
ATOM     14  C   UNL     1       9.287  -2.002   0.000  0.00  0.00    +0.000 A 
ATOM     15  C   UNL     1       8.573  -1.590   0.000  0.00  0.00    +0.000 A 
BRANCH  11  16
ATOM     16  C   UNL     1       7.144  -3.240   0.000  0.00  0.00    +0.000 A 
ATOM     17  C   UNL     1       6.429  -2.827   0.000  0.00  0.00    +0.000 A 
ATOM     18  C   UNL     1       5.715  -3.240   0.000  0.00  0.00    +0.000 A 
ATOM     19  C   UNL     1       5.715  -4.065   0.000  0.00  0.00    +0.000 A 
ATOM     20  C   UNL     1       6.429  -4.477   0.000  0.00  0.00    +0.000 A 
ATOM     21  C   UNL     1       7.144  -4.065   0.000  0.00  0.00    +0.000 A 
BRANCH  19  22
ATOM     22  C   UNL     1       5.000  -4.477   0.000  0.00  0.00    +0.000 C 
ATOM     23  F   UNL     1       4.286  -4.065   0.000  0.00  0.00    +0.000 F 
ATOM     24  F   UNL     1       5.000  -5.302   0.000  0.00  0.00    +0.000 F 
ATOM     25  F   UNL     1       4.787  -3.680   0.000  0.00  0.00    +0.000 F 
ENDBRANCH  19  22
ENDBRANCH  11  16
ENDBRANCH   8  10
ENDBRANCH   4   7
BRANCH   1  26
ATOM     26  C   UNL     1       3.572  -0.352   0.000  0.00  0.00    +0.000 C 
BRANCH  26  27
ATOM     27  C   UNL     1       2.857  -0.765   0.000  0.00  0.00    +0.000 C 
BRANCH  27  28
ATOM     28  C   UNL     1       2.143  -0.352   0.000  0.00  0.00    +0.000 C 
BRANCH  28  29
ATOM     29  C   UNL     1       1.428  -0.765   0.000  0.00  0.00    +0.000 C 
BRANCH  29  30
ATOM     30  C   UNL     1       0.714  -0.352   0.000  0.00  0.00    +0.000 C 
ATOM     31  C   UNL     1      -0.040  -0.017   0.000  0.00  0.00    +0.000 A 
ATOM     32  C   UNL     1      -0.592  -0.630   0.000  0.00  0.00    +0.000 A 
ATOM     33  C   UNL     1      -0.179  -1.344   0.000  0.00  0.00    +0.000 A 
ATOM     34  C   UNL     1       0.627  -1.173   0.000  0.00  0.00    +0.000 A 
ATOM     35  C   UNL     1      -0.434  -2.129   0.000  0.00  0.00    +0.000 A 
ATOM     36  C   UNL     1       0.118  -2.742   0.000  0.00  0.00    +0.000 A 
ATOM     37  C   UNL     1       0.924  -2.570   0.000  0.00  0.00    +0.000 A 
ATOM     38  C   UNL     1       1.179  -1.786   0.000  0.00  0.00    +0.000 A 
ATOM     39  C   UNL     1      -0.295   0.768   0.000  0.00  0.00    +0.000 A 
ATOM     40  C   UNL     1      -1.102   0.940   0.000  0.00  0.00    +0.000 A 
ATOM     41  C   UNL     1      -1.654   0.327   0.000  0.00  0.00    +0.000 A 
ATOM     42  C   UNL     1      -1.399  -0.458   0.000  0.00  0.00    +0.000 A 
BRANCH  30  43
ATOM     43  C   UNL     1       0.714   0.473   0.000  0.00  0.00    +0.000 C 
ATOM     44  O   UNL     1       0.153   0.969   0.000  0.00  0.00    +0.000 OA
ATOM     45  N   UNL     1       1.428   0.885   0.000  0.00  0.00    +0.000 NA
BRANCH  45  46
ATOM     46  C   UNL     1       2.143   0.473   0.000  0.00  0.00    +0.000 C 
BRANCH  46  47
ATOM     47  C   UNL     1       2.857   0.885   0.000  0.00  0.00    +0.000 C 
ATOM     48  F   UNL     1       3.571   0.473   0.000  0.00  0.00    +0.000 F 
ATOM     49  F   UNL     1       2.857   1.710   0.000  0.00  0.00    +0.000 F 
ATOM     50  F   UNL     1       3.071   0.089   0.000  0.00  0.00    +0.000 F 
ENDBRANCH  46  47
ENDBRANCH  45  46
ENDBRANCH  30  43
ENDBRANCH  29  30
ENDBRANCH  28  29
ENDBRANCH  27  28
ENDBRANCH  26  27
ENDBRANCH   1  26
TORSDOF 12
