REMARK  Name = 
REMARK  5 active torsions:
REMARK  status: ('A' for Active; 'I' for Inactive)
REMARK    1  A    between atoms: N_4  and  C_12
REMARK    2  A    between atoms: C_12  and  C_19
REMARK    3  A    between atoms: C_15  and  C_17
REMARK    4  A    between atoms: C_17  and  C_20
REMARK    5  A    between atoms: C_19  and  C_20
REMARK                            x       y       z     vdW  Elec       q    Type
REMARK                         _______ _______ _______ _____ _____    ______ ____
ROOT
ATOM      1  C   UNL     1       9.588  -1.879   0.000  0.00  0.00    +0.000 A 
ATOM      2  C   UNL     1       9.579  -1.179   0.000  0.00  0.00    +0.000 A 
ATOM      3  N   UNL     1       8.963  -2.229   0.000  0.00  0.00    +0.000 N 
ATOM      4  N   UNL     1       8.354  -1.154   0.000  0.00  0.00    +0.000 N 
ATOM      5  C   UNL     1       8.354  -1.867   0.000  0.00  0.00    +0.000 A 
ATOM      6  C   UNL     1       8.967  -0.812   0.000  0.00  0.00    +0.000 A 
ATOM      7  N   UNL     1      10.254  -2.117   0.000  0.00  0.00    +0.000 NA
ATOM      8  N   UNL     1      10.262  -0.963   0.000  0.00  0.00    +0.000 N 
ATOM      9  C   UNL     1      10.675  -1.542   0.000  0.00  0.00    +0.000 A 
ATOM     10  O   UNL     1       7.729  -2.225   0.000  0.00  0.00    +0.000 OA
ATOM     11  O   UNL     1       8.979  -0.096   0.000  0.00  0.00    +0.000 OA
ATOM     12  C   UNL     1       8.954  -2.942   0.000  0.00  0.00    +0.000 C 
ATOM     13  C   UNL     1      10.492  -0.287   0.000  0.00  0.00    +0.000 C 
ENDROOT
BRANCH   4  14
ATOM     14  C   UNL     1       7.742  -0.792   0.000  0.00  0.00    +0.000 C 
BRANCH  14  15
ATOM     15  C   UNL     1       7.138  -1.142   0.000  0.00  0.00    +0.000 C 
BRANCH  15  16
ATOM     16  C   UNL     1       6.529  -0.779   0.000  0.00  0.00    +0.000 C 
BRANCH  16  17
ATOM     17  C   UNL     1       5.900  -1.113   0.000  0.00  0.00    +0.000 C 
BRANCH  17  19
ATOM     18  O   UNL     1       5.304  -0.042   0.000  0.00  0.00    +0.000 OA
ATOM     19  C   UNL     1       5.292  -0.742   0.000  0.00  0.00    +0.000 C 
ATOM     20  C   UNL     1       4.679  -1.092   0.000  0.00  0.00    +0.000 C 
ENDBRANCH  17  19
ENDBRANCH  16  17
ENDBRANCH  15  16
ENDBRANCH  14  15
ENDBRANCH   4  14
TORSDOF 5
