
     RDKit          2D

 45 49  0  0  0  0  0  0  0  0999 V2000
    1.7060   -3.0542    0.0000 C   0  0  0  0  0  0  0  0  0  0  0  0
    2.3230   -3.3954    0.0000 C   0  0  0  0  0  0  0  0  0  0  0  0
    1.0953   -3.3954    0.0000 C   0  0  0  0  0  0  0  0  0  0  0  0
    1.7060   -2.3352    0.0000 C   0  0  0  0  0  0  0  0  0  0  0  0
    2.3230   -4.1047    0.0000 C   0  0  0  0  0  0  0  0  0  0  0  0
    2.9199   -3.0307    0.0000 C   0  0  0  0  0  0  0  0  0  0  0  0
    1.0953   -4.1047    0.0000 C   0  0  0  0  0  0  0  0  0  0  0  0
    0.4948   -3.0307    0.0000 C   0  0  0  0  0  0  0  0  0  0  0  0
    2.3230   -1.9595    0.0000 C   0  0  0  0  0  0  0  0  0  0  0  0
    1.0953   -1.9595    0.0000 C   0  0  0  0  0  0  0  0  0  0  0  0
    1.7060   -4.4866    0.0000 N   0  0  0  0  0  0  0  0  0  0  0  0
    2.9372   -4.4391    0.0000 C   0  0  0  0  0  0  0  0  0  0  0  0
    3.5508   -3.3651    0.0000 O   0  0  0  0  0  0  0  0  0  0  0  0
    2.9199   -2.3283    0.0000 O   0  0  0  0  0  0  0  0  0  0  0  0
    0.4887   -4.4391    0.0000 C   0  0  0  0  0  0  0  0  0  0  0  0
   -0.1221   -3.3582    0.0000 O   0  0  0  0  0  0  0  0  0  0  0  0
    0.4948   -2.3283    0.0000 O   0  0  0  0  0  0  0  0  0  0  0  0
    2.3230   -1.2501    0.0000 C   0  0  0  0  0  0  0  0  0  0  0  0
    1.0953   -1.2501    0.0000 C   0  0  0  0  0  0  0  0  0  0  0  0
    4.1642   -3.0066    0.0000 C   0  0  0  0  0  0  0  0  0  0  0  0
   -0.7225   -2.9832    0.0000 C   0  0  0  0  0  0  0  0  0  0  0  0
    1.7060   -0.9165    0.0000 C   0  0  0  0  0  0  0  0  0  0  0  0
    4.7819   -3.3582    0.0000 C   0  0  0  0  0  0  0  0  0  0  0  0
    5.3885   -2.9997    0.0000 N   0  0  0  0  0  0  0  0  0  0  0  0
    5.3885   -2.2870    0.0000 C   0  0  0  0  0  0  0  0  0  0  0  0
    6.0096   -3.3582    0.0000 C   0  0  0  0  0  0  0  0  0  0  0  0
    6.0096   -1.9258    0.0000 C   0  0  0  0  0  0  0  0  0  0  0  0
    6.6128   -2.9997    0.0000 C   0  0  0  0  0  0  0  0  0  0  0  0
    6.6128   -2.2870    0.0000 N   0  0  0  0  0  0  0  0  0  0  0  0
    7.2477   -1.9051    0.0000 C   0  0  0  0  0  0  0  0  0  0  0  0
    7.8957   -2.3352    0.0000 C   0  0  0  0  0  0  0  0  0  0  0  0
    7.2477   -1.1792    0.0000 C   0  0  0  0  0  0  0  0  0  0  0  0
    7.8957   -3.0514    0.0000 C   0  0  0  0  0  0  0  0  0  0  0  0
    8.5023   -1.9595    0.0000 C   0  0  0  0  0  0  0  0  0  0  0  0
    6.6404   -0.8000    0.0000 C   0  0  0  0  0  0  0  0  0  0  0  0
    7.8543   -0.8000    0.0000 C   0  0  0  0  0  0  0  0  0  0  0  0
    8.5023   -3.3954    0.0000 C   0  0  0  0  0  0  0  0  0  0  0  0
    9.1130   -2.3352    0.0000 C   0  0  0  0  0  0  0  0  0  0  0  0
    6.6404   -0.0810    0.0000 C   0  0  0  0  0  0  0  0  0  0  0  0
    7.8543   -0.0810    0.0000 C   0  0  0  0  0  0  0  0  0  0  0  0
    9.1130   -3.0514    0.0000 C   0  0  0  0  0  0  0  0  0  0  0  0
    7.2477    0.2533    0.0000 C   0  0  0  0  0  0  0  0  0  0  0  0
    2.9199   -0.8820    0.0000 N   0  0  0  0  0  0  0  0  0  0  0  0
    2.9199   -0.1831    0.0000 O   0  0  0  0  0  0  0  0  0  0  0  0
    3.5818   -1.1792    0.0000 O   0  0  0  0  0  0  0  0  0  0  0  0
  2  6  1  0
  3  7  2  0
  3  8  1  0
  4  9  1  0
  4 10  2  0
  5 11  1  0
  5 12  1  0
  6 13  1  0
  6 14  2  0
  7 15  1  0
  8 16  1  0
  8 17  2  0
  9 18  2  0
 10 19  1  0
 13 20  1  0
 16 21  1  0
 18 22  1  0
 18 43  1  0
 20 23  1  0
 23 24  1  0
 24 25  1  0
 24 26  1  0
 25 27  1  0
 26 28  1  0
 27 29  1  0
 29 30  1  0
 30 31  1  0
 30 32  1  0
 31 33  1  0
 31 34  2  0
 32 35  2  0
 32 36  1  0
 33 37  2  0
 34 38  1  0
 35 39  1  0
 36 40  2  0
 37 41  1  0
 39 42  2  0
  7 11  1  0
 19 22  2  0
 28 29  1  0
 38 41  2  0
 40 42  1  0
  1  2  1  0
  1  3  1  0
  1  4  1  0
  2  5  2  0
 43 44  2  0
 43 45  1  0
M  CHG  2  43   1  45  -1
M  END


> <chembl_id>
CHEMBL1085699

> <chembl_pref_name>
MANIDIPINE 6300
