REMARK  Name = 
REMARK  4 active torsions:
REMARK  status: ('A' for Active; 'I' for Inactive)
REMARK    1  A    between atoms: C_1  and  C_5
REMARK    2  A    between atoms: C_4  and  C_5
REMARK    3  A    between atoms: C_4  and  C_9
REMARK    4  A    between atoms: C_6  and  C_9
REMARK                            x       y       z     vdW  Elec       q    Type
REMARK                         _______ _______ _______ _____ _____    ______ ____
ROOT
ATOM      1  C   UNL     1      -0.071  -0.592   0.000  0.00  0.00    +0.000 C 
ENDROOT
BRANCH   1   2
ATOM      2  C   UNL     1      -1.312   0.133   0.000  0.00  0.00    +0.000 C 
BRANCH   2   3
ATOM      3  C   UNL     1      -2.562  -0.554   0.000  0.00  0.00    +0.000 C 
ATOM      4  O   UNL     1      -3.583   0.458   0.000  0.00  0.00    +0.000 OA
ATOM      5  C   UNL     1      -1.762  -1.754   0.000  0.00  0.00    +0.000 C 
ATOM      6  C   UNL     1      -3.683  -1.475   0.000  0.00  0.00    +0.000 C 
ENDBRANCH   2   3
ENDBRANCH   1   2
BRANCH   1   7
ATOM      7  C   UNL     1       1.167   0.096   0.000  0.00  0.00    +0.000 C 
BRANCH   7   9
ATOM      8  N   UNL     1       3.654   0.062   0.000  0.00  0.00    +0.000 NA
ATOM      9  C   UNL     1       2.400  -0.617   0.000  0.00  0.00    +0.000 C 
ATOM     10  C   UNL     1       2.379  -2.054   0.000  0.00  0.00    +0.000 C 
ENDBRANCH   7   9
ENDBRANCH   1   7
TORSDOF 4
