MODEL 1
REMARK VINA RESULT:      -7.1      0.000      0.000
REMARK  Name = 
REMARK  6 active torsions:
REMARK  status: ('A' for Active; 'I' for Inactive)
REMARK    1  A    between atoms: C_6  and  O_8
REMARK    2  A    between atoms: O_8  and  C_9
REMARK    3  A    between atoms: C_9  and  C_10
REMARK    4  A    between atoms: C_10  and  C_11
REMARK    5  A    between atoms: C_11  and  N_13
REMARK    6  A    between atoms: N_13  and  C_14
REMARK                            x       y       z     vdW  Elec       q    Type
REMARK                         _______ _______ _______ _____ _____    ______ ____
ROOT
ATOM      1  O   UNL     1     125.454 154.166 186.201  0.00  0.00    +0.000 OA
ENDROOT
BRANCH   1   7
ATOM      2  C   UNL     1     125.454 155.321 185.361  0.00  0.00    +0.000 A 
ATOM      3  C   UNL     1     125.189 156.084 185.196  0.00  0.00    +0.000 A 
ATOM      4  C   UNL     1     124.660 156.457 185.707  0.00  0.00    +0.000 A 
ATOM      5  C   UNL     1     124.395 156.066 186.384  0.00  0.00    +0.000 A 
ATOM      6  C   UNL     1     124.660 155.301 186.548  0.00  0.00    +0.000 A 
ATOM      7  C   UNL     1     125.189 154.929 186.037  0.00  0.00    +0.000 A 
ATOM      8  O   UNL     1     124.394 157.221 185.543  0.00  0.00    +0.000 OA
ENDBRANCH   1   7
BRANCH   1   9
ATOM      9  C   UNL     1     125.062 153.514 185.881  0.00  0.00    +0.000 C 
BRANCH   9  10
ATOM     10  C   UNL     1     125.306 152.750 186.072  0.00  0.00    +0.000 C 
ATOM     11  O   UNL     1     126.078 152.617 186.331  0.00  0.00    +0.000 OA
BRANCH  10  12
ATOM     12  C   UNL     1     124.779 152.119 186.004  0.00  0.00    +0.000 C 
BRANCH  12  13
ATOM     13  N   UNL     1     125.053 151.374 185.781  0.00  0.00    +0.000 NA
BRANCH  13  14
ATOM     14  C   UNL     1     124.521 150.753 185.672  0.00  0.00    +0.000 C 
ATOM     15  C   UNL     1     124.192 150.616 184.929  0.00  0.00    +0.000 C 
ATOM     16  C   UNL     1     124.318 150.269 186.309  0.00  0.00    +0.000 C 
ENDBRANCH  13  14
ENDBRANCH  12  13
ENDBRANCH  10  12
ENDBRANCH   9  10
ENDBRANCH   1   9
TORSDOF 6
ENDMDL
MODEL 2
REMARK VINA RESULT:      -7.1      1.525      4.519
REMARK  Name = 
REMARK  6 active torsions:
REMARK  status: ('A' for Active; 'I' for Inactive)
REMARK    1  A    between atoms: C_6  and  O_8
REMARK    2  A    between atoms: O_8  and  C_9
REMARK    3  A    between atoms: C_9  and  C_10
REMARK    4  A    between atoms: C_10  and  C_11
REMARK    5  A    between atoms: C_11  and  N_13
REMARK    6  A    between atoms: N_13  and  C_14
REMARK                            x       y       z     vdW  Elec       q    Type
REMARK                         _______ _______ _______ _____ _____    ______ ____
ROOT
ATOM      1  O   UNL     1     125.411 152.092 185.895  0.00  0.00    +0.000 OA
ENDROOT
BRANCH   1   7
ATOM      2  C   UNL     1     124.544 151.169 185.234  0.00  0.00    +0.000 A 
ATOM      3  C   UNL     1     124.057 150.504 185.258  0.00  0.00    +0.000 A 
ATOM      4  C   UNL     1     123.950 150.097 185.968  0.00  0.00    +0.000 A 
ATOM      5  C   UNL     1     124.330 150.355 186.653  0.00  0.00    +0.000 A 
ATOM      6  C   UNL     1     124.817 151.021 186.629  0.00  0.00    +0.000 A 
ATOM      7  C   UNL     1     124.925 151.428 185.919  0.00  0.00    +0.000 A 
ATOM      8  O   UNL     1     123.463 149.431 185.992  0.00  0.00    +0.000 OA
ENDBRANCH   1   7
BRANCH   1   9
ATOM      9  C   UNL     1     125.097 152.841 186.042  0.00  0.00    +0.000 C 
BRANCH   9  10
ATOM     10  C   UNL     1     125.584 153.505 186.021  0.00  0.00    +0.000 C 
ATOM     11  O   UNL     1     126.357 153.459 186.306  0.00  0.00    +0.000 OA
BRANCH  10  12
ATOM     12  C   UNL     1     125.300 154.217 185.716  0.00  0.00    +0.000 C 
BRANCH  12  13
ATOM     13  N   UNL     1     125.378 154.913 186.150  0.00  0.00    +0.000 NA
BRANCH  13  14
ATOM     14  C   UNL     1     125.032 155.611 185.878  0.00  0.00    +0.000 C 
ATOM     15  C   UNL     1     125.311 155.970 185.190  0.00  0.00    +0.000 C 
ATOM     16  C   UNL     1     124.406 155.951 186.295  0.00  0.00    +0.000 C 
ENDBRANCH  13  14
ENDBRANCH  12  13
ENDBRANCH  10  12
ENDBRANCH   9  10
ENDBRANCH   1   9
TORSDOF 6
ENDMDL
MODEL 3
REMARK VINA RESULT:      -6.6     56.889     58.325
REMARK  Name = 
REMARK  6 active torsions:
REMARK  status: ('A' for Active; 'I' for Inactive)
REMARK    1  A    between atoms: C_6  and  O_8
REMARK    2  A    between atoms: O_8  and  C_9
REMARK    3  A    between atoms: C_9  and  C_10
REMARK    4  A    between atoms: C_10  and  C_11
REMARK    5  A    between atoms: C_11  and  N_13
REMARK    6  A    between atoms: N_13  and  C_14
REMARK                            x       y       z     vdW  Elec       q    Type
REMARK                         _______ _______ _______ _____ _____    ______ ____
ROOT
ATOM      1  O   UNL     1     108.421 129.006 135.611  0.00  0.00    +0.000 OA
ENDROOT
BRANCH   1   7
ATOM      2  C   UNL     1     107.589 129.284 134.483  0.00  0.00    +0.000 A 
ATOM      3  C   UNL     1     107.117 129.807 134.056  0.00  0.00    +0.000 A 
ATOM      4  C   UNL     1     107.004 130.577 134.329  0.00  0.00    +0.000 A 
ATOM      5  C   UNL     1     107.362 130.824 135.030  0.00  0.00    +0.000 A 
ATOM      6  C   UNL     1     107.835 130.299 135.458  0.00  0.00    +0.000 A 
ATOM      7  C   UNL     1     107.949 129.529 135.184  0.00  0.00    +0.000 A 
ATOM      8  O   UNL     1     106.531 131.102 133.902  0.00  0.00    +0.000 OA
ENDBRANCH   1   7
BRANCH   1   9
ATOM      9  C   UNL     1     109.218 128.916 135.418  0.00  0.00    +0.000 C 
BRANCH   9  10
ATOM     10  C   UNL     1     109.699 128.418 135.866  0.00  0.00    +0.000 C 
ATOM     11  O   UNL     1     109.423 127.674 136.093  0.00  0.00    +0.000 OA
BRANCH  10  12
ATOM     12  C   UNL     1     110.454 128.663 136.089  0.00  0.00    +0.000 C 
BRANCH  12  13
ATOM     13  N   UNL     1     111.071 128.117 136.129  0.00  0.00    +0.000 NA
BRANCH  13  14
ATOM     14  C   UNL     1     111.835 128.369 136.310  0.00  0.00    +0.000 C 
ATOM     15  C   UNL     1     112.382 128.496 135.707  0.00  0.00    +0.000 C 
ATOM     16  C   UNL     1     112.052 128.493 137.096  0.00  0.00    +0.000 C 
ENDBRANCH  13  14
ENDBRANCH  12  13
ENDBRANCH  10  12
ENDBRANCH   9  10
ENDBRANCH   1   9
TORSDOF 6
ENDMDL
MODEL 4
REMARK VINA RESULT:      -6.4     58.247     58.737
REMARK  Name = 
REMARK  6 active torsions:
REMARK  status: ('A' for Active; 'I' for Inactive)
REMARK    1  A    between atoms: C_6  and  O_8
REMARK    2  A    between atoms: O_8  and  C_9
REMARK    3  A    between atoms: C_9  and  C_10
REMARK    4  A    between atoms: C_10  and  C_11
REMARK    5  A    between atoms: C_11  and  N_13
REMARK    6  A    between atoms: N_13  and  C_14
REMARK                            x       y       z     vdW  Elec       q    Type
REMARK                         _______ _______ _______ _____ _____    ______ ____
ROOT
ATOM      1  O   UNL     1     108.773 128.566 135.468  0.00  0.00    +0.000 OA
ENDROOT
BRANCH   1   7
ATOM      2  C   UNL     1     108.229 129.334 134.392  0.00  0.00    +0.000 A 
ATOM      3  C   UNL     1     107.773 129.967 134.126  0.00  0.00    +0.000 A 
ATOM      4  C   UNL     1     107.405 130.467 134.669  0.00  0.00    +0.000 A 
ATOM      5  C   UNL     1     107.492 130.334 135.478  0.00  0.00    +0.000 A 
ATOM      6  C   UNL     1     107.949 129.700 135.744  0.00  0.00    +0.000 A 
ATOM      7  C   UNL     1     108.317 129.200 135.201  0.00  0.00    +0.000 A 
ATOM      8  O   UNL     1     106.948 131.102 134.402  0.00  0.00    +0.000 OA
ENDBRANCH   1   7
BRANCH   1   9
ATOM      9  C   UNL     1     108.406 127.881 135.745  0.00  0.00    +0.000 C 
BRANCH   9  10
ATOM     10  C   UNL     1     108.861 127.238 135.986  0.00  0.00    +0.000 C 
ATOM     11  O   UNL     1     109.636 127.155 135.713  0.00  0.00    +0.000 OA
BRANCH  10  12
ATOM     12  C   UNL     1     108.544 126.676 136.500  0.00  0.00    +0.000 C 
BRANCH  12  13
ATOM     13  N   UNL     1     108.871 125.920 136.540  0.00  0.00    +0.000 NA
BRANCH  13  14
ATOM     14  C   UNL     1     108.578 125.371 137.081  0.00  0.00    +0.000 C 
ATOM     15  C   UNL     1     108.999 125.204 137.769  0.00  0.00    +0.000 C 
ATOM     16  C   UNL     1     107.862 124.988 136.932  0.00  0.00    +0.000 C 
ENDBRANCH  13  14
ENDBRANCH  12  13
ENDBRANCH  10  12
ENDBRANCH   9  10
ENDBRANCH   1   9
TORSDOF 6
ENDMDL
MODEL 5
REMARK VINA RESULT:      -6.4     32.865     34.845
REMARK  Name = 
REMARK  6 active torsions:
REMARK  status: ('A' for Active; 'I' for Inactive)
REMARK    1  A    between atoms: C_6  and  O_8
REMARK    2  A    between atoms: O_8  and  C_9
REMARK    3  A    between atoms: C_9  and  C_10
REMARK    4  A    between atoms: C_10  and  C_11
REMARK    5  A    between atoms: C_11  and  N_13
REMARK    6  A    between atoms: N_13  and  C_14
REMARK                            x       y       z     vdW  Elec       q    Type
REMARK                         _______ _______ _______ _____ _____    ______ ____
ROOT
ATOM      1  O   UNL     1     144.141 126.485 176.855  0.00  0.00    +0.000 OA
ENDROOT
BRANCH   1   7
ATOM      2  C   UNL     1     143.012 127.157 177.418  0.00  0.00    +0.000 A 
ATOM      3  C   UNL     1     142.646 127.852 177.666  0.00  0.00    +0.000 A 
ATOM      4  C   UNL     1     143.043 128.573 177.601  0.00  0.00    +0.000 A 
ATOM      5  C   UNL     1     143.805 128.598 177.287  0.00  0.00    +0.000 A 
ATOM      6  C   UNL     1     144.171 127.901 177.038  0.00  0.00    +0.000 A 
ATOM      7  C   UNL     1     143.775 127.181 177.104  0.00  0.00    +0.000 A 
ATOM      8  O   UNL     1     142.676 129.270 177.850  0.00  0.00    +0.000 OA
ENDBRANCH   1   7
BRANCH   1   9
ATOM      9  C   UNL     1     144.778 126.178 177.280  0.00  0.00    +0.000 C 
BRANCH   9  10
ATOM     10  C   UNL     1     145.184 125.518 176.998  0.00  0.00    +0.000 C 
ATOM     11  O   UNL     1     144.768 124.837 176.789  0.00  0.00    +0.000 OA
BRANCH  10  12
ATOM     12  C   UNL     1     146.005 125.538 176.925  0.00  0.00    +0.000 C 
BRANCH  12  13
ATOM     13  N   UNL     1     146.459 124.901 177.186  0.00  0.00    +0.000 NA
BRANCH  13  14
ATOM     14  C   UNL     1     147.282 124.936 177.145  0.00  0.00    +0.000 C 
ATOM     15  C   UNL     1     147.651 125.564 176.759  0.00  0.00    +0.000 C 
ATOM     16  C   UNL     1     147.737 124.341 177.491  0.00  0.00    +0.000 C 
ENDBRANCH  13  14
ENDBRANCH  12  13
ENDBRANCH  10  12
ENDBRANCH   9  10
ENDBRANCH   1   9
TORSDOF 6
ENDMDL
MODEL 6
REMARK VINA RESULT:      -6.3     57.459     58.300
REMARK  Name = 
REMARK  6 active torsions:
REMARK  status: ('A' for Active; 'I' for Inactive)
REMARK    1  A    between atoms: C_6  and  O_8
REMARK    2  A    between atoms: O_8  and  C_9
REMARK    3  A    between atoms: C_9  and  C_10
REMARK    4  A    between atoms: C_10  and  C_11
REMARK    5  A    between atoms: C_11  and  N_13
REMARK    6  A    between atoms: N_13  and  C_14
REMARK                            x       y       z     vdW  Elec       q    Type
REMARK                         _______ _______ _______ _____ _____    ______ ____
ROOT
ATOM      1  O   UNL     1     107.062 126.074 137.359  0.00  0.00    +0.000 OA
ENDROOT
BRANCH   1   7
ATOM      2  C   UNL     1     106.134 127.133 137.119  0.00  0.00    +0.000 A 
ATOM      3  C   UNL     1     105.593 127.687 137.404  0.00  0.00    +0.000 A 
ATOM      4  C   UNL     1     105.440 127.736 138.213  0.00  0.00    +0.000 A 
ATOM      5  C   UNL     1     105.827 127.230 138.738  0.00  0.00    +0.000 A 
ATOM      6  C   UNL     1     106.368 126.676 138.453  0.00  0.00    +0.000 A 
ATOM      7  C   UNL     1     106.522 126.627 137.644  0.00  0.00    +0.000 A 
ATOM      8  O   UNL     1     104.898 128.290 138.498  0.00  0.00    +0.000 OA
ENDBRANCH   1   7
BRANCH   1   9
ATOM      9  C   UNL     1     107.870 126.241 137.371  0.00  0.00    +0.000 C 
BRANCH   9  10
ATOM     10  C   UNL     1     108.404 125.725 137.013  0.00  0.00    +0.000 C 
ATOM     11  O   UNL     1     108.297 124.910 137.080  0.00  0.00    +0.000 OA
BRANCH  10  12
ATOM     12  C   UNL     1     109.046 126.023 136.589  0.00  0.00    +0.000 C 
BRANCH  12  13
ATOM     13  N   UNL     1     109.812 125.779 136.773  0.00  0.00    +0.000 NA
BRANCH  13  14
ATOM     14  C   UNL     1     110.459 126.152 136.423  0.00  0.00    +0.000 C 
ATOM     15  C   UNL     1     110.680 125.959 135.652  0.00  0.00    +0.000 C 
ATOM     16  C   UNL     1     110.886 126.718 136.844  0.00  0.00    +0.000 C 
ENDBRANCH  13  14
ENDBRANCH  12  13
ENDBRANCH  10  12
ENDBRANCH   9  10
ENDBRANCH   1   9
TORSDOF 6
ENDMDL
MODEL 7
REMARK VINA RESULT:      -6.3     36.190     37.301
REMARK  Name = 
REMARK  6 active torsions:
REMARK  status: ('A' for Active; 'I' for Inactive)
REMARK    1  A    between atoms: C_6  and  O_8
REMARK    2  A    between atoms: O_8  and  C_9
REMARK    3  A    between atoms: C_9  and  C_10
REMARK    4  A    between atoms: C_10  and  C_11
REMARK    5  A    between atoms: C_11  and  N_13
REMARK    6  A    between atoms: N_13  and  C_14
REMARK                            x       y       z     vdW  Elec       q    Type
REMARK                         _______ _______ _______ _____ _____    ______ ____
ROOT
ATOM      1  O   UNL     1     129.203 117.694 177.954  0.00  0.00    +0.000 OA
ENDROOT
BRANCH   1   7
ATOM      2  C   UNL     1     127.839 117.297 177.794  0.00  0.00    +0.000 A 
ATOM      3  C   UNL     1     127.172 116.904 178.077  0.00  0.00    +0.000 A 
ATOM      4  C   UNL     1     127.200 116.515 178.803  0.00  0.00    +0.000 A 
ATOM      5  C   UNL     1     127.895 116.518 179.248  0.00  0.00    +0.000 A 
ATOM      6  C   UNL     1     128.563 116.912 178.964  0.00  0.00    +0.000 A 
ATOM      7  C   UNL     1     128.535 117.301 178.237  0.00  0.00    +0.000 A 
ATOM      8  O   UNL     1     126.532 116.121 179.087  0.00  0.00    +0.000 OA
ENDBRANCH   1   7
BRANCH   1   9
ATOM      9  C   UNL     1     129.257 117.895 177.156  0.00  0.00    +0.000 C 
BRANCH   9  10
ATOM     10  C   UNL     1     129.898 118.335 176.883  0.00  0.00    +0.000 C 
ATOM     11  O   UNL     1     130.633 118.265 177.252  0.00  0.00    +0.000 OA
BRANCH  10  12
ATOM     12  C   UNL     1     129.806 118.846 176.242  0.00  0.00    +0.000 C 
BRANCH  12  13
ATOM     13  N   UNL     1     130.368 118.857 175.639  0.00  0.00    +0.000 NA
BRANCH  13  14
ATOM     14  C   UNL     1     130.255 119.338 174.978  0.00  0.00    +0.000 C 
ATOM     15  C   UNL     1     130.641 120.064 174.925  0.00  0.00    +0.000 C 
ATOM     16  C   UNL     1     129.755 119.092 174.370  0.00  0.00    +0.000 C 
ENDBRANCH  13  14
ENDBRANCH  12  13
ENDBRANCH  10  12
ENDBRANCH   9  10
ENDBRANCH   1   9
TORSDOF 6
ENDMDL
MODEL 8
REMARK VINA RESULT:      -6.3      2.312      4.886
REMARK  Name = 
REMARK  6 active torsions:
REMARK  status: ('A' for Active; 'I' for Inactive)
REMARK    1  A    between atoms: C_6  and  O_8
REMARK    2  A    between atoms: O_8  and  C_9
REMARK    3  A    between atoms: C_9  and  C_10
REMARK    4  A    between atoms: C_10  and  C_11
REMARK    5  A    between atoms: C_11  and  N_13
REMARK    6  A    between atoms: N_13  and  C_14
REMARK                            x       y       z     vdW  Elec       q    Type
REMARK                         _______ _______ _______ _____ _____    ______ ____
ROOT
ATOM      1  O   UNL     1     126.205 155.130 186.174  0.00  0.00    +0.000 OA
ENDROOT
BRANCH   1   7
ATOM      2  C   UNL     1     126.004 153.858 186.794  0.00  0.00    +0.000 A 
ATOM      3  C   UNL     1     125.662 153.108 186.789  0.00  0.00    +0.000 A 
ATOM      4  C   UNL     1     125.180 152.879 186.161  0.00  0.00    +0.000 A 
ATOM      5  C   UNL     1     125.038 153.399 185.537  0.00  0.00    +0.000 A 
ATOM      6  C   UNL     1     125.381 154.151 185.541  0.00  0.00    +0.000 A 
ATOM      7  C   UNL     1     125.863 154.380 186.170  0.00  0.00    +0.000 A 
ATOM      8  O   UNL     1     124.837 152.127 186.156  0.00  0.00    +0.000 OA
ENDBRANCH   1   7
BRANCH   1   9
ATOM      9  C   UNL     1     125.794 155.770 186.496  0.00  0.00    +0.000 C 
BRANCH   9  10
ATOM     10  C   UNL     1     126.094 156.534 186.420  0.00  0.00    +0.000 C 
ATOM     11  O   UNL     1     126.894 156.679 186.559  0.00  0.00    +0.000 OA
BRANCH  10  12
ATOM     12  C   UNL     1     125.594 157.154 186.205  0.00  0.00    +0.000 C 
BRANCH  12  13
ATOM     13  N   UNL     1     125.756 157.922 186.457  0.00  0.00    +0.000 NA
BRANCH  13  14
ATOM     14  C   UNL     1     125.233 158.535 186.280  0.00  0.00    +0.000 C 
ATOM     15  C   UNL     1     124.898 158.588 185.529  0.00  0.00    +0.000 C 
ATOM     16  C   UNL     1     125.044 159.094 186.856  0.00  0.00    +0.000 C 
ENDBRANCH  13  14
ENDBRANCH  12  13
ENDBRANCH  10  12
ENDBRANCH   9  10
ENDBRANCH   1   9
TORSDOF 6
ENDMDL
MODEL 9
REMARK VINA RESULT:      -6.2     56.855     58.309
REMARK  Name = 
REMARK  6 active torsions:
REMARK  status: ('A' for Active; 'I' for Inactive)
REMARK    1  A    between atoms: C_6  and  O_8
REMARK    2  A    between atoms: O_8  and  C_9
REMARK    3  A    between atoms: C_9  and  C_10
REMARK    4  A    between atoms: C_10  and  C_11
REMARK    5  A    between atoms: C_11  and  N_13
REMARK    6  A    between atoms: N_13  and  C_14
REMARK                            x       y       z     vdW  Elec       q    Type
REMARK                         _______ _______ _______ _____ _____    ______ ____
ROOT
ATOM      1  O   UNL     1     110.471 128.590 135.188  0.00  0.00    +0.000 OA
ENDROOT
BRANCH   1   7
ATOM      2  C   UNL     1     110.660 127.485 136.074  0.00  0.00    +0.000 A 
ATOM      3  C   UNL     1     111.040 127.146 136.723  0.00  0.00    +0.000 A 
ATOM      4  C   UNL     1     111.613 127.574 137.134  0.00  0.00    +0.000 A 
ATOM      5  C   UNL     1     111.806 128.340 136.897  0.00  0.00    +0.000 A 
ATOM      6  C   UNL     1     111.425 128.679 136.248  0.00  0.00    +0.000 A 
ATOM      7  C   UNL     1     110.852 128.252 135.837  0.00  0.00    +0.000 A 
ATOM      8  O   UNL     1     111.995 127.235 137.783  0.00  0.00    +0.000 OA
ENDBRANCH   1   7
BRANCH   1   9
ATOM      9  C   UNL     1     109.729 128.940 135.281  0.00  0.00    +0.000 C 
BRANCH   9  10
ATOM     10  C   UNL     1     109.340 129.260 134.629  0.00  0.00    +0.000 C 
ATOM     11  O   UNL     1     109.751 129.392 133.926  0.00  0.00    +0.000 OA
BRANCH  10  12
ATOM     12  C   UNL     1     108.537 129.447 134.678  0.00  0.00    +0.000 C 
BRANCH  12  13
ATOM     13  N   UNL     1     108.239 130.095 134.264  0.00  0.00    +0.000 NA
BRANCH  13  14
ATOM     14  C   UNL     1     107.454 130.326 134.370  0.00  0.00    +0.000 C 
ATOM     15  C   UNL     1     107.280 131.049 134.726  0.00  0.00    +0.000 C 
ATOM     16  C   UNL     1     106.842 129.833 134.118  0.00  0.00    +0.000 C 
ENDBRANCH  13  14
ENDBRANCH  12  13
ENDBRANCH  10  12
ENDBRANCH   9  10
ENDBRANCH   1   9
TORSDOF 6
ENDMDL
MODEL 10
REMARK VINA RESULT:      -6.2     58.100     59.482
REMARK  Name = 
REMARK  6 active torsions:
REMARK  status: ('A' for Active; 'I' for Inactive)
REMARK    1  A    between atoms: C_6  and  O_8
REMARK    2  A    between atoms: O_8  and  C_9
REMARK    3  A    between atoms: C_9  and  C_10
REMARK    4  A    between atoms: C_10  and  C_11
REMARK    5  A    between atoms: C_11  and  N_13
REMARK    6  A    between atoms: N_13  and  C_14
REMARK                            x       y       z     vdW  Elec       q    Type
REMARK                         _______ _______ _______ _____ _____    ______ ____
ROOT
ATOM      1  O   UNL     1      98.438 138.166 135.527  0.00  0.00    +0.000 OA
ENDROOT
BRANCH   1   7
ATOM      2  C   UNL     1      98.999 138.834 136.659  0.00  0.00    +0.000 A 
ATOM      3  C   UNL     1      99.051 138.934 137.476  0.00  0.00    +0.000 A 
ATOM      4  C   UNL     1      98.595 138.465 137.979  0.00  0.00    +0.000 A 
ATOM      5  C   UNL     1      98.086 137.897 137.665  0.00  0.00    +0.000 A 
ATOM      6  C   UNL     1      98.034 137.797 136.847  0.00  0.00    +0.000 A 
ATOM      7  C   UNL     1      98.490 138.266 136.344  0.00  0.00    +0.000 A 
ATOM      8  O   UNL     1      98.648 138.565 138.797  0.00  0.00    +0.000 OA
ENDBRANCH   1   7
BRANCH   1   9
ATOM      9  C   UNL     1      97.741 138.360 135.131  0.00  0.00    +0.000 C 
BRANCH   9  10
ATOM     10  C   UNL     1      97.689 138.262 134.314  0.00  0.00    +0.000 C 
ATOM     11  O   UNL     1      98.144 138.731 133.812  0.00  0.00    +0.000 OA
BRANCH  10  12
ATOM     12  C   UNL     1      97.181 137.693 133.998  0.00  0.00    +0.000 C 
BRANCH  12  13
ATOM     13  N   UNL     1      96.887 137.781 133.233  0.00  0.00    +0.000 NA
BRANCH  13  14
ATOM     14  C   UNL     1      96.316 137.259 132.947  0.00  0.00    +0.000 C 
ATOM     15  C   UNL     1      95.725 137.530 132.440  0.00  0.00    +0.000 C 
ATOM     16  C   UNL     1      96.336 136.465 133.168  0.00  0.00    +0.000 C 
ENDBRANCH  13  14
ENDBRANCH  12  13
ENDBRANCH  10  12
ENDBRANCH   9  10
ENDBRANCH   1   9
TORSDOF 6
ENDMDL
MODEL 11
REMARK VINA RESULT:      -6.2     58.282     59.243
REMARK  Name = 
REMARK  6 active torsions:
REMARK  status: ('A' for Active; 'I' for Inactive)
REMARK    1  A    between atoms: C_6  and  O_8
REMARK    2  A    between atoms: O_8  and  C_9
REMARK    3  A    between atoms: C_9  and  C_10
REMARK    4  A    between atoms: C_10  and  C_11
REMARK    5  A    between atoms: C_11  and  N_13
REMARK    6  A    between atoms: N_13  and  C_14
REMARK                            x       y       z     vdW  Elec       q    Type
REMARK                         _______ _______ _______ _____ _____    ______ ____
ROOT
ATOM      1  O   UNL     1     108.304 126.462 135.581  0.00  0.00    +0.000 OA
ENDROOT
BRANCH   1   7
ATOM      2  C   UNL     1     108.055 125.596 136.690  0.00  0.00    +0.000 A 
ATOM      3  C   UNL     1     108.324 125.203 137.363  0.00  0.00    +0.000 A 
ATOM      4  C   UNL     1     109.110 125.280 137.600  0.00  0.00    +0.000 A 
ATOM      5  C   UNL     1     109.628 125.752 137.164  0.00  0.00    +0.000 A 
ATOM      6  C   UNL     1     109.359 126.146 136.491  0.00  0.00    +0.000 A 
ATOM      7  C   UNL     1     108.572 126.068 136.253  0.00  0.00    +0.000 A 
ATOM      8  O   UNL     1     109.379 124.886 138.274  0.00  0.00    +0.000 OA
ENDBRANCH   1   7
BRANCH   1   9
ATOM      9  C   UNL     1     108.011 127.231 135.641  0.00  0.00    +0.000 C 
BRANCH   9  10
ATOM     10  C   UNL     1     107.802 127.648 134.961  0.00  0.00    +0.000 C 
ATOM     11  O   UNL     1     107.410 127.262 134.346  0.00  0.00    +0.000 OA
BRANCH  10  12
ATOM     12  C   UNL     1     107.984 128.450 134.896  0.00  0.00    +0.000 C 
BRANCH  12  13
ATOM     13  N   UNL     1     107.658 128.899 134.286  0.00  0.00    +0.000 NA
BRANCH  13  14
ATOM     14  C   UNL     1     107.821 129.706 134.234  0.00  0.00    +0.000 C 
ATOM     15  C   UNL     1     108.572 129.961 134.007  0.00  0.00    +0.000 C 
ATOM     16  C   UNL     1     107.234 130.258 134.410  0.00  0.00    +0.000 C 
ENDBRANCH  13  14
ENDBRANCH  12  13
ENDBRANCH  10  12
ENDBRANCH   9  10
ENDBRANCH   1   9
TORSDOF 6
ENDMDL
MODEL 12
REMARK VINA RESULT:      -6.2     56.634     57.974
REMARK  Name = 
REMARK  6 active torsions:
REMARK  status: ('A' for Active; 'I' for Inactive)
REMARK    1  A    between atoms: C_6  and  O_8
REMARK    2  A    between atoms: O_8  and  C_9
REMARK    3  A    between atoms: C_9  and  C_10
REMARK    4  A    between atoms: C_10  and  C_11
REMARK    5  A    between atoms: C_11  and  N_13
REMARK    6  A    between atoms: N_13  and  C_14
REMARK                            x       y       z     vdW  Elec       q    Type
REMARK                         _______ _______ _______ _____ _____    ______ ____
ROOT
ATOM      1  O   UNL     1     153.925 132.404 140.682  0.00  0.00    +0.000 OA
ENDROOT
BRANCH   1   7
ATOM      2  C   UNL     1     153.236 132.421 141.934  0.00  0.00    +0.000 A 
ATOM      3  C   UNL     1     152.847 132.021 142.540  0.00  0.00    +0.000 A 
ATOM      4  C   UNL     1     152.756 131.202 142.501  0.00  0.00    +0.000 A 
ATOM      5  C   UNL     1     153.055 130.783 141.856  0.00  0.00    +0.000 A 
ATOM      6  C   UNL     1     153.445 131.185 141.249  0.00  0.00    +0.000 A 
ATOM      7  C   UNL     1     153.536 132.004 141.288  0.00  0.00    +0.000 A 
ATOM      8  O   UNL     1     152.367 130.800 143.108  0.00  0.00    +0.000 OA
ENDBRANCH   1   7
BRANCH   1   9
ATOM      9  C   UNL     1     153.595 132.431 139.926  0.00  0.00    +0.000 C 
BRANCH   9  10
ATOM     10  C   UNL     1     153.947 132.890 139.338  0.00  0.00    +0.000 C 
ATOM     11  O   UNL     1     154.765 132.871 139.234  0.00  0.00    +0.000 OA
BRANCH  10  12
ATOM     12  C   UNL     1     153.481 133.369 138.854  0.00  0.00    +0.000 C 
BRANCH  12  13
ATOM     13  N   UNL     1     153.450 133.229 138.042  0.00  0.00    +0.000 NA
BRANCH  13  14
ATOM     14  C   UNL     1     152.965 133.693 137.561  0.00  0.00    +0.000 C 
ATOM     15  C   UNL     1     153.245 134.408 137.260  0.00  0.00    +0.000 C 
ATOM     16  C   UNL     1     152.201 133.441 137.381  0.00  0.00    +0.000 C 
ENDBRANCH  13  14
ENDBRANCH  12  13
ENDBRANCH  10  12
ENDBRANCH   9  10
ENDBRANCH   1   9
TORSDOF 6
ENDMDL
MODEL 13
REMARK VINA RESULT:      -6.2     32.569     34.659
REMARK  Name = 
REMARK  6 active torsions:
REMARK  status: ('A' for Active; 'I' for Inactive)
REMARK    1  A    between atoms: C_6  and  O_8
REMARK    2  A    between atoms: O_8  and  C_9
REMARK    3  A    between atoms: C_9  and  C_10
REMARK    4  A    between atoms: C_10  and  C_11
REMARK    5  A    between atoms: C_11  and  N_13
REMARK    6  A    between atoms: N_13  and  C_14
REMARK                            x       y       z     vdW  Elec       q    Type
REMARK                         _______ _______ _______ _____ _____    ______ ____
ROOT
ATOM      1  O   UNL     1     146.501 127.315 177.620  0.00  0.00    +0.000 OA
ENDROOT
BRANCH   1   7
ATOM      2  C   UNL     1     146.420 125.905 177.404  0.00  0.00    +0.000 A 
ATOM      3  C   UNL     1     146.021 125.251 177.099  0.00  0.00    +0.000 A 
ATOM      4  C   UNL     1     145.303 125.352 176.706  0.00  0.00    +0.000 A 
ATOM      5  C   UNL     1     144.984 126.108 176.617  0.00  0.00    +0.000 A 
ATOM      6  C   UNL     1     145.384 126.763 176.923  0.00  0.00    +0.000 A 
ATOM      7  C   UNL     1     146.102 126.661 177.316  0.00  0.00    +0.000 A 
ATOM      8  O   UNL     1     144.903 124.697 176.401  0.00  0.00    +0.000 OA
ENDBRANCH   1   7
BRANCH   1   9
ATOM      9  C   UNL     1     146.091 127.883 178.057  0.00  0.00    +0.000 C 
BRANCH   9  10
ATOM     10  C   UNL     1     146.497 128.514 178.399  0.00  0.00    +0.000 C 
ATOM     11  O   UNL     1     147.227 128.386 178.762  0.00  0.00    +0.000 OA
BRANCH  10  12
ATOM     12  C   UNL     1     146.175 129.273 178.377  0.00  0.00    +0.000 C 
BRANCH  12  13
ATOM     13  N   UNL     1     146.431 129.845 178.912  0.00  0.00    +0.000 NA
BRANCH  13  14
ATOM     14  C   UNL     1     146.095 130.599 178.904  0.00  0.00    +0.000 C 
ATOM     15  C   UNL     1     145.439 130.764 179.374  0.00  0.00    +0.000 C 
ATOM     16  C   UNL     1     146.417 131.188 178.424  0.00  0.00    +0.000 C 
ENDBRANCH  13  14
ENDBRANCH  12  13
ENDBRANCH  10  12
ENDBRANCH   9  10
ENDBRANCH   1   9
TORSDOF 6
ENDMDL
MODEL 14
REMARK VINA RESULT:      -6.1     57.608     58.508
REMARK  Name = 
REMARK  6 active torsions:
REMARK  status: ('A' for Active; 'I' for Inactive)
REMARK    1  A    between atoms: C_6  and  O_8
REMARK    2  A    between atoms: O_8  and  C_9
REMARK    3  A    between atoms: C_9  and  C_10
REMARK    4  A    between atoms: C_10  and  C_11
REMARK    5  A    between atoms: C_11  and  N_13
REMARK    6  A    between atoms: N_13  and  C_14
REMARK                            x       y       z     vdW  Elec       q    Type
REMARK                         _______ _______ _______ _____ _____    ______ ____
ROOT
ATOM      1  O   UNL     1     107.816 128.921 135.657  0.00  0.00    +0.000 OA
ENDROOT
BRANCH   1   7
ATOM      2  C   UNL     1     108.660 128.955 134.504  0.00  0.00    +0.000 A 
ATOM      3  C   UNL     1     109.414 128.955 134.171  0.00  0.00    +0.000 A 
ATOM      4  C   UNL     1     110.080 128.921 134.658  0.00  0.00    +0.000 A 
ATOM      5  C   UNL     1     109.991 128.887 135.477  0.00  0.00    +0.000 A 
ATOM      6  C   UNL     1     109.235 128.887 135.810  0.00  0.00    +0.000 A 
ATOM      7  C   UNL     1     108.570 128.921 135.324  0.00  0.00    +0.000 A 
ATOM      8  O   UNL     1     110.835 128.921 134.325  0.00  0.00    +0.000 OA
ENDBRANCH   1   7
BRANCH   1   9
ATOM      9  C   UNL     1     107.484 128.216 135.929  0.00  0.00    +0.000 C 
BRANCH   9  10
ATOM     10  C   UNL     1     106.704 128.202 136.195  0.00  0.00    +0.000 C 
ATOM     11  O   UNL     1     106.083 128.234 135.653  0.00  0.00    +0.000 OA
BRANCH  10  12
ATOM     12  C   UNL     1     106.543 128.157 137.003  0.00  0.00    +0.000 C 
BRANCH  12  13
ATOM     13  N   UNL     1     105.871 127.760 137.269  0.00  0.00    +0.000 NA
BRANCH  13  14
ATOM     14  C   UNL     1     105.741 127.664 138.078  0.00  0.00    +0.000 C 
ATOM     15  C   UNL     1     106.033 126.999 138.467  0.00  0.00    +0.000 C 
ATOM     16  C   UNL     1     105.319 128.235 138.498  0.00  0.00    +0.000 C 
ENDBRANCH  13  14
ENDBRANCH  12  13
ENDBRANCH  10  12
ENDBRANCH   9  10
ENDBRANCH   1   9
TORSDOF 6
ENDMDL
MODEL 15
REMARK VINA RESULT:      -6.1     32.705     34.837
REMARK  Name = 
REMARK  6 active torsions:
REMARK  status: ('A' for Active; 'I' for Inactive)
REMARK    1  A    between atoms: C_6  and  O_8
REMARK    2  A    between atoms: O_8  and  C_9
REMARK    3  A    between atoms: C_9  and  C_10
REMARK    4  A    between atoms: C_10  and  C_11
REMARK    5  A    between atoms: C_11  and  N_13
REMARK    6  A    between atoms: N_13  and  C_14
REMARK                            x       y       z     vdW  Elec       q    Type
REMARK                         _______ _______ _______ _____ _____    ______ ____
ROOT
ATOM      1  O   UNL     1     145.406 126.785 176.461  0.00  0.00    +0.000 OA
ENDROOT
BRANCH   1   7
ATOM      2  C   UNL     1     146.753 126.399 176.744  0.00  0.00    +0.000 A 
ATOM      3  C   UNL     1     147.298 125.827 176.979  0.00  0.00    +0.000 A 
ATOM      4  C   UNL     1     147.040 125.066 177.167  0.00  0.00    +0.000 A 
ATOM      5  C   UNL     1     146.239 124.877 177.120  0.00  0.00    +0.000 A 
ATOM      6  C   UNL     1     145.694 125.451 176.884  0.00  0.00    +0.000 A 
ATOM      7  C   UNL     1     145.951 126.212 176.696  0.00  0.00    +0.000 A 
ATOM      8  O   UNL     1     147.586 124.492 177.402  0.00  0.00    +0.000 OA
ENDBRANCH   1   7
BRANCH   1   9
ATOM      9  C   UNL     1     145.050 127.272 177.024  0.00  0.00    +0.000 C 
BRANCH   9  10
ATOM     10  C   UNL     1     144.494 127.834 176.790  0.00  0.00    +0.000 C 
ATOM     11  O   UNL     1     144.456 128.073 176.002  0.00  0.00    +0.000 OA
BRANCH  10  12
ATOM     12  C   UNL     1     143.975 128.157 177.345  0.00  0.00    +0.000 C 
BRANCH  12  13
ATOM     13  N   UNL     1     143.616 128.885 177.199  0.00  0.00    +0.000 NA
BRANCH  13  14
ATOM     14  C   UNL     1     143.125 129.225 177.768  0.00  0.00    +0.000 C 
ATOM     15  C   UNL     1     143.371 129.898 178.177  0.00  0.00    +0.000 C 
ATOM     16  C   UNL     1     142.388 128.892 177.929  0.00  0.00    +0.000 C 
ENDBRANCH  13  14
ENDBRANCH  12  13
ENDBRANCH  10  12
ENDBRANCH   9  10
ENDBRANCH   1   9
TORSDOF 6
ENDMDL
MODEL 16
REMARK VINA RESULT:      -6.1     57.988     59.027
REMARK  Name = 
REMARK  6 active torsions:
REMARK  status: ('A' for Active; 'I' for Inactive)
REMARK    1  A    between atoms: C_6  and  O_8
REMARK    2  A    between atoms: O_8  and  C_9
REMARK    3  A    between atoms: C_9  and  C_10
REMARK    4  A    between atoms: C_10  and  C_11
REMARK    5  A    between atoms: C_11  and  N_13
REMARK    6  A    between atoms: N_13  and  C_14
REMARK                            x       y       z     vdW  Elec       q    Type
REMARK                         _______ _______ _______ _____ _____    ______ ____
ROOT
ATOM      1  O   UNL     1     107.159 127.000 135.986  0.00  0.00    +0.000 OA
ENDROOT
BRANCH   1   7
ATOM      2  C   UNL     1     106.936 126.580 137.334  0.00  0.00    +0.000 A 
ATOM      3  C   UNL     1     106.504 126.627 138.034  0.00  0.00    +0.000 A 
ATOM      4  C   UNL     1     105.862 127.141 138.088  0.00  0.00    +0.000 A 
ATOM      5  C   UNL     1     105.651 127.608 137.442  0.00  0.00    +0.000 A 
ATOM      6  C   UNL     1     106.084 127.561 136.741  0.00  0.00    +0.000 A 
ATOM      7  C   UNL     1     106.727 127.047 136.686  0.00  0.00    +0.000 A 
ATOM      8  O   UNL     1     105.429 127.188 138.790  0.00  0.00    +0.000 OA
ENDBRANCH   1   7
BRANCH   1   9
ATOM      9  C   UNL     1     107.715 127.581 135.804  0.00  0.00    +0.000 C 
BRANCH   9  10
ATOM     10  C   UNL     1     108.132 127.546 135.093  0.00  0.00    +0.000 C 
ATOM     11  O   UNL     1     107.979 126.939 134.555  0.00  0.00    +0.000 OA
BRANCH  10  12
ATOM     12  C   UNL     1     108.702 128.117 134.919  0.00  0.00    +0.000 C 
BRANCH  12  13
ATOM     13  N   UNL     1     108.711 128.479 134.179  0.00  0.00    +0.000 NA
BRANCH  13  14
ATOM     14  C   UNL     1     109.214 129.117 134.037  0.00  0.00    +0.000 C 
ATOM     15  C   UNL     1     110.017 128.987 133.901  0.00  0.00    +0.000 C 
ATOM     16  C   UNL     1     108.915 129.886 134.032  0.00  0.00    +0.000 C 
ENDBRANCH  13  14
ENDBRANCH  12  13
ENDBRANCH  10  12
ENDBRANCH   9  10
ENDBRANCH   1   9
TORSDOF 6
ENDMDL
MODEL 17
REMARK VINA RESULT:      -6.1     36.547     37.323
REMARK  Name = 
REMARK  6 active torsions:
REMARK  status: ('A' for Active; 'I' for Inactive)
REMARK    1  A    between atoms: C_6  and  O_8
REMARK    2  A    between atoms: O_8  and  C_9
REMARK    3  A    between atoms: C_9  and  C_10
REMARK    4  A    between atoms: C_10  and  C_11
REMARK    5  A    between atoms: C_11  and  N_13
REMARK    6  A    between atoms: N_13  and  C_14
REMARK                            x       y       z     vdW  Elec       q    Type
REMARK                         _______ _______ _______ _____ _____    ______ ____
ROOT
ATOM      1  O   UNL     1     129.800 117.712 176.799  0.00  0.00    +0.000 OA
ENDROOT
BRANCH   1   7
ATOM      2  C   UNL     1     130.359 118.846 176.134  0.00  0.00    +0.000 A 
ATOM      3  C   UNL     1     130.444 119.305 175.455  0.00  0.00    +0.000 A 
ATOM      4  C   UNL     1     130.055 119.090 174.760  0.00  0.00    +0.000 A 
ATOM      5  C   UNL     1     129.581 118.415 174.745  0.00  0.00    +0.000 A 
ATOM      6  C   UNL     1     129.496 117.955 175.425  0.00  0.00    +0.000 A 
ATOM      7  C   UNL     1     129.885 118.171 176.120  0.00  0.00    +0.000 A 
ATOM      8  O   UNL     1     130.140 119.549 174.080  0.00  0.00    +0.000 OA
ENDBRANCH   1   7
BRANCH   1   9
ATOM      9  C   UNL     1     129.184 117.864 177.327  0.00  0.00    +0.000 C 
BRANCH   9  10
ATOM     10  C   UNL     1     129.117 117.425 178.022  0.00  0.00    +0.000 C 
ATOM     11  O   UNL     1     129.757 117.371 178.539  0.00  0.00    +0.000 OA
BRANCH  10  12
ATOM     12  C   UNL     1     128.409 117.040 178.200  0.00  0.00    +0.000 C 
BRANCH  12  13
ATOM     13  N   UNL     1     128.174 116.952 178.985  0.00  0.00    +0.000 NA
BRANCH  13  14
ATOM     14  C   UNL     1     127.517 116.488 179.171  0.00  0.00    +0.000 C 
ATOM     15  C   UNL     1     127.505 116.049 179.868  0.00  0.00    +0.000 C 
ATOM     16  C   UNL     1     126.872 116.463 178.657  0.00  0.00    +0.000 C 
ENDBRANCH  13  14
ENDBRANCH  12  13
ENDBRANCH  10  12
ENDBRANCH   9  10
ENDBRANCH   1   9
TORSDOF 6
ENDMDL
MODEL 18
REMARK VINA RESULT:      -6.0     27.790     28.578
REMARK  Name = 
REMARK  6 active torsions:
REMARK  status: ('A' for Active; 'I' for Inactive)
REMARK    1  A    between atoms: C_6  and  O_8
REMARK    2  A    between atoms: O_8  and  C_9
REMARK    3  A    between atoms: C_9  and  C_10
REMARK    4  A    between atoms: C_10  and  C_11
REMARK    5  A    between atoms: C_11  and  N_13
REMARK    6  A    between atoms: N_13  and  C_14
REMARK                            x       y       z     vdW  Elec       q    Type
REMARK                         _______ _______ _______ _____ _____    ______ ____
ROOT
ATOM      1  O   UNL     1     123.082 126.111 183.394  0.00  0.00    +0.000 OA
ENDROOT
BRANCH   1   7
ATOM      2  C   UNL     1     122.744 126.281 184.772  0.00  0.00    +0.000 A 
ATOM      3  C   UNL     1     122.177 126.313 185.370  0.00  0.00    +0.000 A 
ATOM      4  C   UNL     1     121.380 126.207 185.187  0.00  0.00    +0.000 A 
ATOM      5  C   UNL     1     121.149 126.070 184.407  0.00  0.00    +0.000 A 
ATOM      6  C   UNL     1     121.717 126.038 183.809  0.00  0.00    +0.000 A 
ATOM      7  C   UNL     1     122.515 126.143 183.992  0.00  0.00    +0.000 A 
ATOM      8  O   UNL     1     120.812 126.239 185.786  0.00  0.00    +0.000 OA
ENDBRANCH   1   7
BRANCH   1   9
ATOM      9  C   UNL     1     123.592 125.465 183.343  0.00  0.00    +0.000 C 
BRANCH   9  10
ATOM     10  C   UNL     1     124.160 125.434 182.746  0.00  0.00    +0.000 C 
ATOM     11  O   UNL     1     124.464 126.132 182.429  0.00  0.00    +0.000 OA
BRANCH  10  12
ATOM     12  C   UNL     1     124.426 124.704 182.466  0.00  0.00    +0.000 C 
BRANCH  12  13
ATOM     13  N   UNL     1     125.229 124.581 182.330  0.00  0.00    +0.000 NA
BRANCH  13  14
ATOM     14  C   UNL     1     125.499 123.839 182.090  0.00  0.00    +0.000 C 
ATOM     15  C   UNL     1     125.807 123.313 182.645  0.00  0.00    +0.000 C 
ATOM     16  C   UNL     1     125.461 123.625 181.295  0.00  0.00    +0.000 C 
ENDBRANCH  13  14
ENDBRANCH  12  13
ENDBRANCH  10  12
ENDBRANCH   9  10
ENDBRANCH   1   9
TORSDOF 6
ENDMDL
MODEL 19
REMARK VINA RESULT:      -5.9     27.718     29.096
REMARK  Name = 
REMARK  6 active torsions:
REMARK  status: ('A' for Active; 'I' for Inactive)
REMARK    1  A    between atoms: C_6  and  O_8
REMARK    2  A    between atoms: O_8  and  C_9
REMARK    3  A    between atoms: C_9  and  C_10
REMARK    4  A    between atoms: C_10  and  C_11
REMARK    5  A    between atoms: C_11  and  N_13
REMARK    6  A    between atoms: N_13  and  C_14
REMARK                            x       y       z     vdW  Elec       q    Type
REMARK                         _______ _______ _______ _____ _____    ______ ____
ROOT
ATOM      1  O   UNL     1     124.437 125.286 183.185  0.00  0.00    +0.000 OA
ENDROOT
BRANCH   1   7
ATOM      2  C   UNL     1     125.231 124.316 183.871  0.00  0.00    +0.000 A 
ATOM      3  C   UNL     1     125.713 123.648 183.856  0.00  0.00    +0.000 A 
ATOM      4  C   UNL     1     125.885 123.280 183.138  0.00  0.00    +0.000 A 
ATOM      5  C   UNL     1     125.574 123.580 182.435  0.00  0.00    +0.000 A 
ATOM      6  C   UNL     1     125.091 124.250 182.451  0.00  0.00    +0.000 A 
ATOM      7  C   UNL     1     124.920 124.618 183.169  0.00  0.00    +0.000 A 
ATOM      8  O   UNL     1     126.367 122.610 183.122  0.00  0.00    +0.000 OA
ENDBRANCH   1   7
BRANCH   1   9
ATOM      9  C   UNL     1     123.696 125.253 183.545  0.00  0.00    +0.000 C 
BRANCH   9  10
ATOM     10  C   UNL     1     123.198 125.910 183.527  0.00  0.00    +0.000 C 
ATOM     11  O   UNL     1     123.502 126.652 183.334  0.00  0.00    +0.000 OA
BRANCH  10  12
ATOM     12  C   UNL     1     122.396 125.825 183.702  0.00  0.00    +0.000 C 
BRANCH  12  13
ATOM     13  N   UNL     1     122.020 126.373 184.190  0.00  0.00    +0.000 NA
BRANCH  13  14
ATOM     14  C   UNL     1     121.260 126.221 184.474  0.00  0.00    +0.000 C 
ATOM     15  C   UNL     1     120.653 126.032 183.949  0.00  0.00    +0.000 C 
ATOM     16  C   UNL     1     121.108 126.257 185.284  0.00  0.00    +0.000 C 
ENDBRANCH  13  14
ENDBRANCH  12  13
ENDBRANCH  10  12
ENDBRANCH   9  10
ENDBRANCH   1   9
TORSDOF 6
ENDMDL
MODEL 20
REMARK VINA RESULT:      -5.8     56.807     58.364
REMARK  Name = 
REMARK  6 active torsions:
REMARK  status: ('A' for Active; 'I' for Inactive)
REMARK    1  A    between atoms: C_6  and  O_8
REMARK    2  A    between atoms: O_8  and  C_9
REMARK    3  A    between atoms: C_9  and  C_10
REMARK    4  A    between atoms: C_10  and  C_11
REMARK    5  A    between atoms: C_11  and  N_13
REMARK    6  A    between atoms: N_13  and  C_14
REMARK                            x       y       z     vdW  Elec       q    Type
REMARK                         _______ _______ _______ _____ _____    ______ ____
ROOT
ATOM      1  O   UNL     1     109.915 127.026 135.898  0.00  0.00    +0.000 OA
ENDROOT
BRANCH   1   7
ATOM      2  C   UNL     1     111.019 126.985 136.804  0.00  0.00    +0.000 A 
ATOM      3  C   UNL     1     111.661 127.355 137.166  0.00  0.00    +0.000 A 
ATOM      4  C   UNL     1     111.840 128.140 136.983  0.00  0.00    +0.000 A 
ATOM      5  C   UNL     1     111.379 128.553 136.439  0.00  0.00    +0.000 A 
ATOM      6  C   UNL     1     110.736 128.181 136.077  0.00  0.00    +0.000 A 
ATOM      7  C   UNL     1     110.557 127.397 136.259  0.00  0.00    +0.000 A 
ATOM      8  O   UNL     1     112.483 128.511 137.345  0.00  0.00    +0.000 OA
ENDBRANCH   1   7
BRANCH   1   9
ATOM      9  C   UNL     1     109.170 127.051 136.252  0.00  0.00    +0.000 C 
BRANCH   9  10
ATOM     10  C   UNL     1     108.526 126.695 135.882  0.00  0.00    +0.000 C 
ATOM     11  O   UNL     1     108.614 125.962 135.513  0.00  0.00    +0.000 OA
BRANCH  10  12
ATOM     12  C   UNL     1     107.791 127.071 135.879  0.00  0.00    +0.000 C 
BRANCH  12  13
ATOM     13  N   UNL     1     107.107 126.642 136.047  0.00  0.00    +0.000 NA
BRANCH  13  14
ATOM     14  C   UNL     1     106.376 127.024 136.075  0.00  0.00    +0.000 C 
ATOM     15  C   UNL     1     105.949 127.150 135.382  0.00  0.00    +0.000 C 
ATOM     16  C   UNL     1     106.073 127.280 136.799  0.00  0.00    +0.000 C 
ENDBRANCH  13  14
ENDBRANCH  12  13
ENDBRANCH  10  12
ENDBRANCH   9  10
ENDBRANCH   1   9
TORSDOF 6
ENDMDL
