REMARK  Name = 
REMARK  5 active torsions:
REMARK  status: ('A' for Active; 'I' for Inactive)
REMARK    1  A    between atoms: C_1  and  C_2
REMARK    2  A    between atoms: C_1  and  O_3
REMARK    3  A    between atoms: C_2  and  O_7
REMARK    4  A    between atoms: O_3  and  C_5
REMARK    5  A    between atoms: O_7  and  C_15
REMARK                            x       y       z     vdW  Elec       q    Type
REMARK                         _______ _______ _______ _____ _____    ______ ____
ROOT
ATOM      1  C   UNL     1       1.667  -1.054   0.000  0.00  0.00    +0.000 C 
ATOM      2  C   UNL     1       2.017  -0.438   0.000  0.00  0.00    +0.000 C 
ATOM      3  C   UNL     1       1.312  -0.438   0.000  0.00  0.00    +0.000 C 
ENDROOT
BRANCH   1   4
ATOM      4  C   UNL     1       2.279  -1.404   0.000  0.00  0.00    +0.000 C 
ATOM      5  O   UNL     1       2.288  -2.117   0.000  0.00  0.00    +0.000 OA
BRANCH   4   6
ATOM      6  O   UNL     1       2.892  -1.050   0.000  0.00  0.00    +0.000 OA
BRANCH   6   7
ATOM      7  C   UNL     1       3.513  -1.404   0.000  0.00  0.00    +0.000 C 
ATOM      8  C   UNL     1       4.125  -1.042   0.000  0.00  0.00    +0.000 C 
ENDBRANCH   6   7
ENDBRANCH   4   6
ENDBRANCH   1   4
BRANCH   1   9
ATOM      9  O   UNL     1       1.054  -1.413   0.000  0.00  0.00    +0.000 OA
BRANCH   9  10
ATOM     10  C   UNL     1       0.442  -1.054   0.000  0.00  0.00    +0.000 A 
ATOM     11  C   UNL     1      -0.783  -0.350   0.000  0.00  0.00    +0.000 A 
ATOM     12 CL   UNL     1      -1.396   0.008   0.000  0.00  0.00    +0.000 Cl
ATOM     13  C   UNL     1      -0.171  -1.413   0.000  0.00  0.00    +0.000 A 
ATOM     14  C   UNL     1       0.442  -0.342   0.000  0.00  0.00    +0.000 A 
ATOM     15  C   UNL     1      -0.783  -1.054   0.000  0.00  0.00    +0.000 A 
ATOM     16  C   UNL     1      -0.171   0.008   0.000  0.00  0.00    +0.000 A 
ENDBRANCH   9  10
ENDBRANCH   1   9
TORSDOF 5
