MODEL 1
REMARK VINA RESULT:      -8.8      0.000      0.000
REMARK  Name = 
REMARK  3 active torsions:
REMARK  status: ('A' for Active; 'I' for Inactive)
REMARK    1  A    between atoms: S_1  and  C_7
REMARK    2  A    between atoms: C_2  and  C_11
REMARK    3  A    between atoms: C_3  and  C_8
REMARK                            x       y       z     vdW  Elec       q    Type
REMARK                         _______ _______ _______ _____ _____    ______ ____
ROOT
ATOM      1  C   UNL     1     134.771 121.606 173.499  0.00  0.00    +0.000 C 
ATOM      2  C   UNL     1     134.217 121.913 173.825  0.00  0.00    +0.000 C 
ATOM      3  C   UNL     1     135.163 121.301 174.027  0.00  0.00    +0.000 C 
ATOM      4  O   UNL     1     134.827 121.439 174.648  0.00  0.00    +0.000 OA
ATOM      5  C   UNL     1     134.266 121.805 174.498  0.00  0.00    +0.000 C 
ATOM      6  O   UNL     1     135.756 120.942 173.946  0.00  0.00    +0.000 OA
ENDROOT
BRANCH   2   8
ATOM      7  C   UNL     1     132.502 122.999 173.130  0.00  0.00    +0.000 A 
ATOM      8  C   UNL     1     133.650 122.293 173.589  0.00  0.00    +0.000 A 
ATOM      9  C   UNL     1     132.445 122.304 173.318  0.00  0.00    +0.000 A 
ATOM     10  C   UNL     1     133.130 123.331 173.174  0.00  0.00    +0.000 A 
ATOM     11  C   UNL     1     133.021 121.961 173.545  0.00  0.00    +0.000 A 
ATOM     12  C   UNL     1     133.692 122.962 173.405  0.00  0.00    +0.000 A 
BRANCH   7  13
ATOM     13  S   UNL     1     131.908 123.351 172.896  0.00  0.00    +0.000 S 
ATOM     14  O   UNL     1     132.193 123.979 173.061  0.00  0.00    +0.000 OA
ATOM     15  O   UNL     1     131.540 123.953 172.777  0.00  0.00    +0.000 OA
ATOM     16  C   UNL     1     131.367 122.967 172.636  0.00  0.00    +0.000 C 
ENDBRANCH   7  13
ENDBRANCH   2   8
BRANCH   1  17
ATOM     17  C   UNL     1     134.685 121.738 172.815  0.00  0.00    +0.000 A 
ATOM     18  C   UNL     1     134.931 122.339 172.522  0.00  0.00    +0.000 A 
ATOM     19  C   UNL     1     134.345 121.255 172.420  0.00  0.00    +0.000 A 
ATOM     20  C   UNL     1     134.248 121.378 171.710  0.00  0.00    +0.000 A 
ATOM     21  C   UNL     1     134.835 122.453 171.835  0.00  0.00    +0.000 A 
ATOM     22  C   UNL     1     134.494 121.979 171.417  0.00  0.00    +0.000 A 
ENDBRANCH   1  17
TORSDOF 3
ENDMDL
MODEL 2
REMARK VINA RESULT:      -8.2     14.677     15.722
REMARK  Name = 
REMARK  3 active torsions:
REMARK  status: ('A' for Active; 'I' for Inactive)
REMARK    1  A    between atoms: S_1  and  C_7
REMARK    2  A    between atoms: C_2  and  C_11
REMARK    3  A    between atoms: C_3  and  C_8
REMARK                            x       y       z     vdW  Elec       q    Type
REMARK                         _______ _______ _______ _____ _____    ______ ____
ROOT
ATOM      1  C   UNL     1     118.868 123.748 168.547  0.00  0.00    +0.000 C 
ATOM      2  C   UNL     1     119.427 123.314 168.466  0.00  0.00    +0.000 C 
ATOM      3  C   UNL     1     118.961 124.068 169.190  0.00  0.00    +0.000 C 
ATOM      4  O   UNL     1     119.573 123.812 169.468  0.00  0.00    +0.000 OA
ATOM      5  C   UNL     1     119.830 123.364 169.015  0.00  0.00    +0.000 C 
ATOM      6  O   UNL     1     118.535 124.536 169.484  0.00  0.00    +0.000 OA
ENDROOT
BRANCH   2   8
ATOM      7  C   UNL     1     120.072 122.001 166.895  0.00  0.00    +0.000 A 
ATOM      8  C   UNL     1     119.633 122.860 167.943  0.00  0.00    +0.000 A 
ATOM      9  C   UNL     1     120.371 122.654 166.974  0.00  0.00    +0.000 A 
ATOM     10  C   UNL     1     119.558 121.787 167.340  0.00  0.00    +0.000 A 
ATOM     11  C   UNL     1     120.146 123.074 167.498  0.00  0.00    +0.000 A 
ATOM     12  C   UNL     1     119.352 122.230 167.856  0.00  0.00    +0.000 A 
BRANCH   7  13
ATOM     13  S   UNL     1     120.304 121.570 166.356  0.00  0.00    +0.000 S 
ATOM     14  O   UNL     1     120.078 120.991 166.697  0.00  0.00    +0.000 OA
ATOM     15  O   UNL     1     120.393 120.924 166.061  0.00  0.00    +0.000 OA
ATOM     16  C   UNL     1     120.618 121.872 165.792  0.00  0.00    +0.000 C 
ENDBRANCH   7  13
ENDBRANCH   2   8
BRANCH   1  17
ATOM     17  C   UNL     1     118.481 123.668 167.967  0.00  0.00    +0.000 A 
ATOM     18  C   UNL     1     118.608 124.055 167.383  0.00  0.00    +0.000 A 
ATOM     19  C   UNL     1     117.956 123.188 167.977  0.00  0.00    +0.000 A 
ATOM     20  C   UNL     1     117.547 123.094 167.383  0.00  0.00    +0.000 A 
ATOM     21  C   UNL     1     118.210 123.961 166.812  0.00  0.00    +0.000 A 
ATOM     22  C   UNL     1     117.674 123.481 166.799  0.00  0.00    +0.000 A 
ENDBRANCH   1  17
TORSDOF 3
ENDMDL
MODEL 3
REMARK VINA RESULT:      -8.0     75.059     76.013
REMARK  Name = 
REMARK  3 active torsions:
REMARK  status: ('A' for Active; 'I' for Inactive)
REMARK    1  A    between atoms: S_1  and  C_7
REMARK    2  A    between atoms: C_2  and  C_11
REMARK    3  A    between atoms: C_3  and  C_8
REMARK                            x       y       z     vdW  Elec       q    Type
REMARK                         _______ _______ _______ _____ _____    ______ ____
ROOT
ATOM      1  C   UNL     1     112.527 105.827 102.073  0.00  0.00    +0.000 C 
ATOM      2  C   UNL     1     112.113 106.149 102.556  0.00  0.00    +0.000 C 
ATOM      3  C   UNL     1     112.898 105.323 102.439  0.00  0.00    +0.000 C 
ATOM      4  O   UNL     1     112.690 105.364 103.127  0.00  0.00    +0.000 OA
ATOM      5  C   UNL     1     112.222 105.865 103.168  0.00  0.00    +0.000 C 
ATOM      6  O   UNL     1     113.368 104.881 102.173  0.00  0.00    +0.000 OA
ENDROOT
BRANCH   2   8
ATOM      7  C   UNL     1     110.719 107.777 102.463  0.00  0.00    +0.000 A 
ATOM      8  C   UNL     1     111.632 106.686 102.519  0.00  0.00    +0.000 A 
ATOM      9  C   UNL     1     111.395 107.886 102.693  0.00  0.00    +0.000 A 
ATOM     10  C   UNL     1     110.509 107.126 102.264  0.00  0.00    +0.000 A 
ATOM     11  C   UNL     1     111.842 107.337 102.717  0.00  0.00    +0.000 A 
ATOM     12  C   UNL     1     110.978 106.594 102.299  0.00  0.00    +0.000 A 
BRANCH   7  13
ATOM     13  S   UNL     1     110.260 108.343 102.438  0.00  0.00    +0.000 S 
ATOM     14  O   UNL     1     109.702 107.910 102.372  0.00  0.00    +0.000 OA
ATOM     15  O   UNL     1     109.600 108.616 102.386  0.00  0.00    +0.000 OA
ATOM     16  C   UNL     1     110.529 109.000 102.485  0.00  0.00    +0.000 C 
ENDBRANCH   7  13
ENDBRANCH   2   8
BRANCH   1  17
ATOM     17  C   UNL     1     112.388 106.145 101.463  0.00  0.00    +0.000 A 
ATOM     18  C   UNL     1     111.853 105.927 101.048  0.00  0.00    +0.000 A 
ATOM     19  C   UNL     1     112.798 106.693 101.269  0.00  0.00    +0.000 A 
ATOM     20  C   UNL     1     112.666 107.032 100.639  0.00  0.00    +0.000 A 
ATOM     21  C   UNL     1     111.729 106.258 100.440  0.00  0.00    +0.000 A 
ATOM     22  C   UNL     1     112.130 106.814 100.224  0.00  0.00    +0.000 A 
ENDBRANCH   1  17
TORSDOF 3
ENDMDL
MODEL 4
REMARK VINA RESULT:      -8.0     85.286     86.195
REMARK  Name = 
REMARK  3 active torsions:
REMARK  status: ('A' for Active; 'I' for Inactive)
REMARK    1  A    between atoms: S_1  and  C_7
REMARK    2  A    between atoms: C_2  and  C_11
REMARK    3  A    between atoms: C_3  and  C_8
REMARK                            x       y       z     vdW  Elec       q    Type
REMARK                         _______ _______ _______ _____ _____    ______ ____
ROOT
ATOM      1  C   UNL     1     133.518 162.663  97.012  0.00  0.00    +0.000 C 
ATOM      2  C   UNL     1     133.931 162.833  97.568  0.00  0.00    +0.000 C 
ATOM      3  C   UNL     1     133.532 161.939  96.973  0.00  0.00    +0.000 C 
ATOM      4  O   UNL     1     133.953 161.705  97.508  0.00  0.00    +0.000 OA
ATOM      5  C   UNL     1     134.177 162.260  97.846  0.00  0.00    +0.000 C 
ATOM      6  O   UNL     1     133.199 161.544  96.504  0.00  0.00    +0.000 OA
ENDROOT
BRANCH   2   8
ATOM      7  C   UNL     1     134.467 164.687  98.504  0.00  0.00    +0.000 A 
ATOM      8  C   UNL     1     134.123 163.459  97.871  0.00  0.00    +0.000 A 
ATOM      9  C   UNL     1     133.950 164.269  98.787  0.00  0.00    +0.000 A 
ATOM     10  C   UNL     1     134.804 164.487  97.910  0.00  0.00    +0.000 A 
ATOM     11  C   UNL     1     133.786 163.660  98.465  0.00  0.00    +0.000 A 
ATOM     12  C   UNL     1     134.619 163.871  97.608  0.00  0.00    +0.000 A 
BRANCH   7  13
ATOM     13  S   UNL     1     134.634 165.313  98.838  0.00  0.00    +0.000 S 
ATOM     14  O   UNL     1     135.245 165.360  98.480  0.00  0.00    +0.000 OA
ATOM     15  O   UNL     1     135.071 165.869  98.948  0.00  0.00    +0.000 OA
ATOM     16  C   UNL     1     134.177 165.577  99.315  0.00  0.00    +0.000 C 
ENDBRANCH   7  13
ENDBRANCH   2   8
BRANCH   1  17
ATOM     17  C   UNL     1     133.285 163.273  96.756  0.00  0.00    +0.000 A 
ATOM     18  C   UNL     1     133.666 163.641  96.280  0.00  0.00    +0.000 A 
ATOM     19  C   UNL     1     132.657 163.515  96.985  0.00  0.00    +0.000 A 
ATOM     20  C   UNL     1     132.403 164.146  96.728  0.00  0.00    +0.000 A 
ATOM     21  C   UNL     1     133.416 164.251  96.035  0.00  0.00    +0.000 A 
ATOM     22  C   UNL     1     132.783 164.515  96.252  0.00  0.00    +0.000 A 
ENDBRANCH   1  17
TORSDOF 3
ENDMDL
MODEL 5
REMARK VINA RESULT:      -8.0      1.863      3.433
REMARK  Name = 
REMARK  3 active torsions:
REMARK  status: ('A' for Active; 'I' for Inactive)
REMARK    1  A    between atoms: S_1  and  C_7
REMARK    2  A    between atoms: C_2  and  C_11
REMARK    3  A    between atoms: C_3  and  C_8
REMARK                            x       y       z     vdW  Elec       q    Type
REMARK                         _______ _______ _______ _____ _____    ______ ____
ROOT
ATOM      1  C   UNL     1     133.608 122.166 170.368  0.00  0.00    +0.000 C 
ATOM      2  C   UNL     1     134.227 122.113 170.718  0.00  0.00    +0.000 C 
ATOM      3  C   UNL     1     133.783 122.376 169.696  0.00  0.00    +0.000 C 
ATOM      4  O   UNL     1     134.499 122.440 169.672  0.00  0.00    +0.000 OA
ATOM      5  C   UNL     1     134.738 122.277 170.296  0.00  0.00    +0.000 C 
ATOM      6  O   UNL     1     133.338 122.494 169.171  0.00  0.00    +0.000 OA
ENDROOT
BRANCH   2   8
ATOM      7  C   UNL     1     134.751 121.617 172.739  0.00  0.00    +0.000 A 
ATOM      8  C   UNL     1     134.401 121.929 171.395  0.00  0.00    +0.000 A 
ATOM      9  C   UNL     1     134.765 122.304 172.514  0.00  0.00    +0.000 A 
ATOM     10  C   UNL     1     134.563 121.097 172.290  0.00  0.00    +0.000 A 
ATOM     11  C   UNL     1     134.589 122.449 171.843  0.00  0.00    +0.000 A 
ATOM     12  C   UNL     1     134.391 121.272 171.623  0.00  0.00    +0.000 A 
BRANCH   7  13
ATOM     13  S   UNL     1     134.933 121.469 173.429  0.00  0.00    +0.000 S 
ATOM     14  O   UNL     1     135.255 120.868 173.234  0.00  0.00    +0.000 OA
ATOM     15  O   UNL     1     135.243 121.053 173.922  0.00  0.00    +0.000 OA
ATOM     16  C   UNL     1     134.737 121.928 173.937  0.00  0.00    +0.000 C 
ENDBRANCH   7  13
ENDBRANCH   2   8
BRANCH   1  17
ATOM     17  C   UNL     1     133.113 121.991 170.832  0.00  0.00    +0.000 A 
ATOM     18  C   UNL     1     132.831 122.476 171.270  0.00  0.00    +0.000 A 
ATOM     19  C   UNL     1     132.898 121.313 170.854  0.00  0.00    +0.000 A 
ATOM     20  C   UNL     1     132.384 121.117 171.330  0.00  0.00    +0.000 A 
ATOM     21  C   UNL     1     132.335 122.281 171.729  0.00  0.00    +0.000 A 
ATOM     22  C   UNL     1     132.102 121.602 171.768  0.00  0.00    +0.000 A 
ENDBRANCH   1  17
TORSDOF 3
ENDMDL
MODEL 6
REMARK VINA RESULT:      -7.9     24.056     25.271
REMARK  Name = 
REMARK  3 active torsions:
REMARK  status: ('A' for Active; 'I' for Inactive)
REMARK    1  A    between atoms: S_1  and  C_7
REMARK    2  A    between atoms: C_2  and  C_11
REMARK    3  A    between atoms: C_3  and  C_8
REMARK                            x       y       z     vdW  Elec       q    Type
REMARK                         _______ _______ _______ _____ _____    ______ ____
ROOT
ATOM      1  C   UNL     1     150.853 104.873 177.027  0.00  0.00    +0.000 C 
ATOM      2  C   UNL     1     151.091 105.505 177.257  0.00  0.00    +0.000 C 
ATOM      3  C   UNL     1     150.143 104.868 177.172  0.00  0.00    +0.000 C 
ATOM      4  O   UNL     1     149.985 105.497 177.483  0.00  0.00    +0.000 OA
ATOM      5  C   UNL     1     150.569 105.857 177.521  0.00  0.00    +0.000 C 
ATOM      6  O   UNL     1     149.697 104.349 177.034  0.00  0.00    +0.000 OA
ENDROOT
BRANCH   2   8
ATOM      7  C   UNL     1     153.027 106.428 177.320  0.00  0.00    +0.000 A 
ATOM      8  C   UNL     1     151.741 105.819 177.261  0.00  0.00    +0.000 A 
ATOM      9  C   UNL     1     152.738 106.138 177.916  0.00  0.00    +0.000 A 
ATOM     10  C   UNL     1     152.669 106.410 176.705  0.00  0.00    +0.000 A 
ATOM     11  C   UNL     1     152.098 105.837 177.877  0.00  0.00    +0.000 A 
ATOM     12  C   UNL     1     152.029 106.102 176.695  0.00  0.00    +0.000 A 
BRANCH   7  13
ATOM     13  S   UNL     1     153.685 106.737 177.363  0.00  0.00    +0.000 S 
ATOM     14  O   UNL     1     153.559 107.126 176.783  0.00  0.00    +0.000 OA
ATOM     15  O   UNL     1     154.185 107.188 177.119  0.00  0.00    +0.000 OA
ATOM     16  C   UNL     1     154.117 106.544 177.895  0.00  0.00    +0.000 C 
ENDBRANCH   7  13
ENDBRANCH   2   8
BRANCH   1  17
ATOM     17  C   UNL     1     151.414 104.544 176.764  0.00  0.00    +0.000 A 
ATOM     18  C   UNL     1     151.839 104.151 177.180  0.00  0.00    +0.000 A 
ATOM     19  C   UNL     1     151.550 104.613 176.069  0.00  0.00    +0.000 A 
ATOM     20  C   UNL     1     152.128 104.278 175.784  0.00  0.00    +0.000 A 
ATOM     21  C   UNL     1     152.396 103.829 176.898  0.00  0.00    +0.000 A 
ATOM     22  C   UNL     1     152.552 103.885 176.199  0.00  0.00    +0.000 A 
ENDBRANCH   1  17
TORSDOF 3
ENDMDL
MODEL 7
REMARK VINA RESULT:      -7.7     75.246     76.395
REMARK  Name = 
REMARK  3 active torsions:
REMARK  status: ('A' for Active; 'I' for Inactive)
REMARK    1  A    between atoms: S_1  and  C_7
REMARK    2  A    between atoms: C_2  and  C_11
REMARK    3  A    between atoms: C_3  and  C_8
REMARK                            x       y       z     vdW  Elec       q    Type
REMARK                         _______ _______ _______ _____ _____    ______ ____
ROOT
ATOM      1  C   UNL     1     112.804 106.144 100.641  0.00  0.00    +0.000 C 
ATOM      2  C   UNL     1     112.342 106.613 100.917  0.00  0.00    +0.000 C 
ATOM      3  C   UNL     1     113.050 106.450 100.031  0.00  0.00    +0.000 C 
ATOM      4  O   UNL     1     112.726 107.089  99.968  0.00  0.00    +0.000 OA
ATOM      5  C   UNL     1     112.309 107.160 100.509  0.00  0.00    +0.000 C 
ATOM      6  O   UNL     1     113.516 106.174  99.590  0.00  0.00    +0.000 OA
ENDROOT
BRANCH   2   8
ATOM      7  C   UNL     1     111.077 106.603 102.649  0.00  0.00    +0.000 A 
ATOM      8  C   UNL     1     111.931 106.614 101.510  0.00  0.00    +0.000 A 
ATOM      9  C   UNL     1     110.806 106.456 101.996  0.00  0.00    +0.000 A 
ATOM     10  C   UNL     1     111.770 106.753 102.724  0.00  0.00    +0.000 A 
ATOM     11  C   UNL     1     111.239 106.464 101.435  0.00  0.00    +0.000 A 
ATOM     12  C   UNL     1     112.180 106.754 102.144  0.00  0.00    +0.000 A 
BRANCH   7  13
ATOM     13  S   UNL     1     110.631 106.595 103.226  0.00  0.00    +0.000 S 
ATOM     14  O   UNL     1     111.074 107.007 103.596  0.00  0.00    +0.000 OA
ATOM     15  O   UNL     1     110.465 106.787 103.895  0.00  0.00    +0.000 OA
ATOM     16  C   UNL     1     110.023 106.228 103.179  0.00  0.00    +0.000 C 
ENDBRANCH   7  13
ENDBRANCH   2   8
BRANCH   1  17
ATOM     17  C   UNL     1     112.810 105.601 101.084  0.00  0.00    +0.000 A 
ATOM     18  C   UNL     1     113.243 105.591 101.649  0.00  0.00    +0.000 A 
ATOM     19  C   UNL     1     112.369 105.057 100.955  0.00  0.00    +0.000 A 
ATOM     20  C   UNL     1     112.364 104.487 101.406  0.00  0.00    +0.000 A 
ATOM     21  C   UNL     1     113.234 105.037 102.082  0.00  0.00    +0.000 A 
ATOM     22  C   UNL     1     112.797 104.477 101.971  0.00  0.00    +0.000 A 
ENDBRANCH   1  17
TORSDOF 3
ENDMDL
MODEL 8
REMARK VINA RESULT:      -7.7     26.573     27.969
REMARK  Name = 
REMARK  3 active torsions:
REMARK  status: ('A' for Active; 'I' for Inactive)
REMARK    1  A    between atoms: S_1  and  C_7
REMARK    2  A    between atoms: C_2  and  C_11
REMARK    3  A    between atoms: C_3  and  C_8
REMARK                            x       y       z     vdW  Elec       q    Type
REMARK                         _______ _______ _______ _____ _____    ______ ____
ROOT
ATOM      1  C   UNL     1     134.251 124.747 144.802  0.00  0.00    +0.000 C 
ATOM      2  C   UNL     1     134.657 125.317 144.669  0.00  0.00    +0.000 C 
ATOM      3  C   UNL     1     134.125 124.444 144.156  0.00  0.00    +0.000 C 
ATOM      4  O   UNL     1     134.461 124.845 143.663  0.00  0.00    +0.000 OA
ATOM      5  C   UNL     1     134.771 125.359 143.997  0.00  0.00    +0.000 C 
ATOM      6  O   UNL     1     133.747 123.869 144.036  0.00  0.00    +0.000 OA
ENDROOT
BRANCH   2   8
ATOM      7  C   UNL     1     135.495 126.861 145.902  0.00  0.00    +0.000 A 
ATOM      8  C   UNL     1     134.952 125.826 145.089  0.00  0.00    +0.000 A 
ATOM      9  C   UNL     1     134.896 126.983 145.517  0.00  0.00    +0.000 A 
ATOM     10  C   UNL     1     135.814 126.225 145.875  0.00  0.00    +0.000 A 
ATOM     11  C   UNL     1     134.633 126.462 145.115  0.00  0.00    +0.000 A 
ATOM     12  C   UNL     1     135.528 125.721 145.464  0.00  0.00    +0.000 A 
BRANCH   7  13
ATOM     13  S   UNL     1     135.764 127.398 146.314  0.00  0.00    +0.000 S 
ATOM     14  O   UNL     1     136.398 127.081 146.345  0.00  0.00    +0.000 OA
ATOM     15  O   UNL     1     136.299 127.703 146.680  0.00  0.00    +0.000 OA
ATOM     16  C   UNL     1     135.335 127.940 146.488  0.00  0.00    +0.000 C 
ENDBRANCH   7  13
ENDBRANCH   2   8
BRANCH   1  17
ATOM     17  C   UNL     1     134.158 124.739 145.497  0.00  0.00    +0.000 A 
ATOM     18  C   UNL     1     134.620 124.410 145.927  0.00  0.00    +0.000 A 
ATOM     19  C   UNL     1     133.586 125.070 145.763  0.00  0.00    +0.000 A 
ATOM     20  C   UNL     1     133.477 125.070 146.482  0.00  0.00    +0.000 A 
ATOM     21  C   UNL     1     134.509 124.414 146.621  0.00  0.00    +0.000 A 
ATOM     22  C   UNL     1     133.939 124.741 146.912  0.00  0.00    +0.000 A 
ENDBRANCH   1  17
TORSDOF 3
ENDMDL
MODEL 9
REMARK VINA RESULT:      -7.6     61.968     63.227
REMARK  Name = 
REMARK  3 active torsions:
REMARK  status: ('A' for Active; 'I' for Inactive)
REMARK    1  A    between atoms: S_1  and  C_7
REMARK    2  A    between atoms: C_2  and  C_11
REMARK    3  A    between atoms: C_3  and  C_8
REMARK                            x       y       z     vdW  Elec       q    Type
REMARK                         _______ _______ _______ _____ _____    ______ ____
ROOT
ATOM      1  C   UNL     1     117.146 113.487 113.303  0.00  0.00    +0.000 C 
ATOM      2  C   UNL     1     116.723 113.248 112.780  0.00  0.00    +0.000 C 
ATOM      3  C   UNL     1     117.806 113.540 113.009  0.00  0.00    +0.000 C 
ATOM      4  O   UNL     1     117.751 113.332 112.322  0.00  0.00    +0.000 OA
ATOM      5  C   UNL     1     117.094 113.164 112.213  0.00  0.00    +0.000 C 
ATOM      6  O   UNL     1     118.386 113.755 113.333  0.00  0.00    +0.000 OA
ENDROOT
BRANCH   2   8
ATOM      7  C   UNL     1     114.644 112.729 112.676  0.00  0.00    +0.000 A 
ATOM      8  C   UNL     1     116.019 113.091 112.744  0.00  0.00    +0.000 A 
ATOM      9  C   UNL     1     115.147 112.216 112.746  0.00  0.00    +0.000 A 
ATOM     10  C   UNL     1     114.834 113.415 112.641  0.00  0.00    +0.000 A 
ATOM     11  C   UNL     1     115.829 112.405 112.778  0.00  0.00    +0.000 A 
ATOM     12  C   UNL     1     115.525 113.576 112.677  0.00  0.00    +0.000 A 
BRANCH   7  13
ATOM     13  S   UNL     1     113.943 112.533 112.642  0.00  0.00    +0.000 S 
ATOM     14  O   UNL     1     113.774 113.130 112.299  0.00  0.00    +0.000 OA
ATOM     15  O   UNL     1     113.264 112.654 112.448  0.00  0.00    +0.000 OA
ATOM     16  C   UNL     1     113.751 111.910 112.929  0.00  0.00    +0.000 C 
ENDBRANCH   7  13
ENDBRANCH   2   8
BRANCH   1  17
ATOM     17  C   UNL     1     116.730 113.560 113.863  0.00  0.00    +0.000 A 
ATOM     18  C   UNL     1     116.610 113.016 114.307  0.00  0.00    +0.000 A 
ATOM     19  C   UNL     1     116.431 114.195 113.977  0.00  0.00    +0.000 A 
ATOM     20  C   UNL     1     115.998 114.287 114.554  0.00  0.00    +0.000 A 
ATOM     21  C   UNL     1     116.191 113.110 114.863  0.00  0.00    +0.000 A 
ATOM     22  C   UNL     1     115.878 113.743 114.998  0.00  0.00    +0.000 A 
ENDBRANCH   1  17
TORSDOF 3
ENDMDL
MODEL 10
REMARK VINA RESULT:      -7.5     86.009     87.338
REMARK  Name = 
REMARK  3 active torsions:
REMARK  status: ('A' for Active; 'I' for Inactive)
REMARK    1  A    between atoms: S_1  and  C_7
REMARK    2  A    between atoms: C_2  and  C_11
REMARK    3  A    between atoms: C_3  and  C_8
REMARK                            x       y       z     vdW  Elec       q    Type
REMARK                         _______ _______ _______ _____ _____    ______ ____
ROOT
ATOM      1  C   UNL     1     135.934 151.569  91.954  0.00  0.00    +0.000 C 
ATOM      2  C   UNL     1     135.302 151.471  91.638  0.00  0.00    +0.000 C 
ATOM      3  C   UNL     1     136.031 150.989  92.379  0.00  0.00    +0.000 C 
ATOM      4  O   UNL     1     135.453 150.568  92.299  0.00  0.00    +0.000 OA
ATOM      5  C   UNL     1     135.035 150.880  91.852  0.00  0.00    +0.000 C 
ATOM      6  O   UNL     1     136.583 150.864  92.788  0.00  0.00    +0.000 OA
ENDROOT
BRANCH   2   8
ATOM      7  C   UNL     1     134.133 152.637  90.269  0.00  0.00    +0.000 A 
ATOM      8  C   UNL     1     134.919 151.857  91.164  0.00  0.00    +0.000 A 
ATOM      9  C   UNL     1     133.981 152.639  90.975  0.00  0.00    +0.000 A 
ATOM     10  C   UNL     1     134.674 152.247  90.020  0.00  0.00    +0.000 A 
ATOM     11  C   UNL     1     134.378 152.248  91.413  0.00  0.00    +0.000 A 
ATOM     12  C   UNL     1     135.055 151.864  90.482  0.00  0.00    +0.000 A 
BRANCH   7  13
ATOM     13  S   UNL     1     133.724 153.040  89.820  0.00  0.00    +0.000 S 
ATOM     14  O   UNL     1     133.873 152.613  89.273  0.00  0.00    +0.000 OA
ATOM     15  O   UNL     1     133.448 153.177  89.174  0.00  0.00    +0.000 OA
ATOM     16  C   UNL     1     133.394 153.613  90.083  0.00  0.00    +0.000 C 
ENDBRANCH   7  13
ENDBRANCH   2   8
BRANCH   1  17
ATOM     17  C   UNL     1     136.174 152.181  91.710  0.00  0.00    +0.000 A 
ATOM     18  C   UNL     1     136.003 152.796  92.025  0.00  0.00    +0.000 A 
ATOM     19  C   UNL     1     136.596 152.172  91.137  0.00  0.00    +0.000 A 
ATOM     20  C   UNL     1     136.853 152.799  90.873  0.00  0.00    +0.000 A 
ATOM     21  C   UNL     1     136.253 153.399  91.766  0.00  0.00    +0.000 A 
ATOM     22  C   UNL     1     136.681 153.414  91.189  0.00  0.00    +0.000 A 
ENDBRANCH   1  17
TORSDOF 3
ENDMDL
MODEL 11
REMARK VINA RESULT:      -7.5     79.710     80.656
REMARK  Name = 
REMARK  3 active torsions:
REMARK  status: ('A' for Active; 'I' for Inactive)
REMARK    1  A    between atoms: S_1  and  C_7
REMARK    2  A    between atoms: C_2  and  C_11
REMARK    3  A    between atoms: C_3  and  C_8
REMARK                            x       y       z     vdW  Elec       q    Type
REMARK                         _______ _______ _______ _____ _____    ______ ____
ROOT
ATOM      1  C   UNL     1     106.010 141.734  99.694  0.00  0.00    +0.000 C 
ATOM      2  C   UNL     1     105.713 141.320 100.192  0.00  0.00    +0.000 C 
ATOM      3  C   UNL     1     106.629 141.403  99.511  0.00  0.00    +0.000 C 
ATOM      4  O   UNL     1     106.676 140.805  99.908  0.00  0.00    +0.000 OA
ATOM      5  C   UNL     1     106.116 140.781 100.305  0.00  0.00    +0.000 C 
ATOM      6  O   UNL     1     107.092 141.625  99.038  0.00  0.00    +0.000 OA
ENDROOT
BRANCH   2   8
ATOM      7  C   UNL     1     103.876 141.417 101.297  0.00  0.00    +0.000 A 
ATOM      8  C   UNL     1     105.102 141.364 100.574  0.00  0.00    +0.000 A 
ATOM      9  C   UNL     1     103.938 140.979 100.724  0.00  0.00    +0.000 A 
ATOM     10  C   UNL     1     104.426 141.821 101.499  0.00  0.00    +0.000 A 
ATOM     11  C   UNL     1     104.552 140.960 100.372  0.00  0.00    +0.000 A 
ATOM     12  C   UNL     1     105.030 141.781 101.127  0.00  0.00    +0.000 A 
BRANCH   7  13
ATOM     13  S   UNL     1     103.243 141.435 101.659  0.00  0.00    +0.000 S 
ATOM     14  O   UNL     1     102.923 141.055 101.153  0.00  0.00    +0.000 OA
ATOM     15  O   UNL     1     102.550 141.268 101.723  0.00  0.00    +0.000 OA
ATOM     16  C   UNL     1     103.219 141.780 102.281  0.00  0.00    +0.000 C 
ENDBRANCH   7  13
ENDBRANCH   2   8
BRANCH   1  17
ATOM     17  C   UNL     1     105.569 142.272  99.607  0.00  0.00    +0.000 A 
ATOM     18  C   UNL     1     105.030 142.235  99.143  0.00  0.00    +0.000 A 
ATOM     19  C   UNL     1     105.675 142.858  99.995  0.00  0.00    +0.000 A 
ATOM     20  C   UNL     1     105.225 143.424  99.916  0.00  0.00    +0.000 A 
ATOM     21  C   UNL     1     104.599 142.785  99.070  0.00  0.00    +0.000 A 
ATOM     22  C   UNL     1     104.686 143.388  99.452  0.00  0.00    +0.000 A 
ENDBRANCH   1  17
TORSDOF 3
ENDMDL
MODEL 12
REMARK VINA RESULT:      -7.5     40.653     42.083
REMARK  Name = 
REMARK  3 active torsions:
REMARK  status: ('A' for Active; 'I' for Inactive)
REMARK    1  A    between atoms: S_1  and  C_7
REMARK    2  A    between atoms: C_2  and  C_11
REMARK    3  A    between atoms: C_3  and  C_8
REMARK                            x       y       z     vdW  Elec       q    Type
REMARK                         _______ _______ _______ _____ _____    ______ ____
ROOT
ATOM      1  C   UNL     1     140.498 118.350 132.178  0.00  0.00    +0.000 C 
ATOM      2  C   UNL     1     140.991 118.051 131.760  0.00  0.00    +0.000 C 
ATOM      3  C   UNL     1     139.859 118.167 131.888  0.00  0.00    +0.000 C 
ATOM      4  O   UNL     1     139.997 117.765 131.307  0.00  0.00    +0.000 OA
ATOM      5  C   UNL     1     140.680 117.712 131.255  0.00  0.00    +0.000 C 
ATOM      6  O   UNL     1     139.229 118.347 132.127  0.00  0.00    +0.000 OA
ENDROOT
BRANCH   2   8
ATOM      7  C   UNL     1     143.137 118.059 131.760  0.00  0.00    +0.000 A 
ATOM      8  C   UNL     1     141.713 118.041 131.772  0.00  0.00    +0.000 A 
ATOM      9  C   UNL     1     142.768 118.495 131.317  0.00  0.00    +0.000 A 
ATOM     10  C   UNL     1     142.790 117.621 132.202  0.00  0.00    +0.000 A 
ATOM     11  C   UNL     1     142.060 118.479 131.330  0.00  0.00    +0.000 A 
ATOM     12  C   UNL     1     142.080 117.627 132.194  0.00  0.00    +0.000 A 
BRANCH   7  13
ATOM     13  S   UNL     1     143.865 118.077 131.745  0.00  0.00    +0.000 S 
ATOM     14  O   UNL     1     143.860 118.642 131.316  0.00  0.00    +0.000 OA
ATOM     15  O   UNL     1     144.483 118.364 131.525  0.00  0.00    +0.000 OA
ATOM     16  C   UNL     1     144.224 117.587 132.116  0.00  0.00    +0.000 C 
ENDBRANCH   7  13
ENDBRANCH   2   8
BRANCH   1  17
ATOM     17  C   UNL     1     140.854 118.686 132.681  0.00  0.00    +0.000 A 
ATOM     18  C   UNL     1     141.074 119.357 132.590  0.00  0.00    +0.000 A 
ATOM     19  C   UNL     1     140.990 118.337 133.286  0.00  0.00    +0.000 A 
ATOM     20  C   UNL     1     141.358 118.673 133.815  0.00  0.00    +0.000 A 
ATOM     21  C   UNL     1     141.430 119.676 133.106  0.00  0.00    +0.000 A 
ATOM     22  C   UNL     1     141.579 119.344 133.725  0.00  0.00    +0.000 A 
ENDBRANCH   1  17
TORSDOF 3
ENDMDL
MODEL 13
REMARK VINA RESULT:      -7.5     35.940     37.321
REMARK  Name = 
REMARK  3 active torsions:
REMARK  status: ('A' for Active; 'I' for Inactive)
REMARK    1  A    between atoms: S_1  and  C_7
REMARK    2  A    between atoms: C_2  and  C_11
REMARK    3  A    between atoms: C_3  and  C_8
REMARK                            x       y       z     vdW  Elec       q    Type
REMARK                         _______ _______ _______ _____ _____    ______ ____
ROOT
ATOM      1  C   UNL     1      98.260 134.959 169.051  0.00  0.00    +0.000 C 
ATOM      2  C   UNL     1      98.477 135.379 168.517  0.00  0.00    +0.000 C 
ATOM      3  C   UNL     1      97.811 135.367 169.449  0.00  0.00    +0.000 C 
ATOM      4  O   UNL     1      97.778 136.014 169.135  0.00  0.00    +0.000 OA
ATOM      5  C   UNL     1      98.185 135.992 168.582  0.00  0.00    +0.000 C 
ATOM      6  O   UNL     1      97.475 135.168 170.027  0.00  0.00    +0.000 OA
ENDROOT
BRANCH   2   8
ATOM      7  C   UNL     1      99.833 135.107 166.876  0.00  0.00    +0.000 A 
ATOM      8  C   UNL     1      98.921 135.279 167.956  0.00  0.00    +0.000 A 
ATOM      9  C   UNL     1     100.045 135.453 167.475  0.00  0.00    +0.000 A 
ATOM     10  C   UNL     1      99.169 134.853 166.826  0.00  0.00    +0.000 A 
ATOM     11  C   UNL     1      99.584 135.533 168.006  0.00  0.00    +0.000 A 
ATOM     12  C   UNL     1      98.728 134.948 167.375  0.00  0.00    +0.000 A 
BRANCH   7  13
ATOM     13  S   UNL     1     100.308 135.025 166.330  0.00  0.00    +0.000 S 
ATOM     14  O   UNL     1      99.782 134.920 165.865  0.00  0.00    +0.000 OA
ATOM     15  O   UNL     1     100.459 134.904 165.641  0.00  0.00    +0.000 OA
ATOM     16  C   UNL     1     101.003 135.078 166.474  0.00  0.00    +0.000 C 
ENDBRANCH   7  13
ENDBRANCH   2   8
BRANCH   1  17
ATOM     17  C   UNL     1      98.580 134.343 168.950  0.00  0.00    +0.000 A 
ATOM     18  C   UNL     1      98.292 133.843 168.533  0.00  0.00    +0.000 A 
ATOM     19  C   UNL     1      99.203 134.231 169.276  0.00  0.00    +0.000 A 
ATOM     20  C   UNL     1      99.546 133.597 169.180  0.00  0.00    +0.000 A 
ATOM     21  C   UNL     1      98.628 133.232 168.444  0.00  0.00    +0.000 A 
ATOM     22  C   UNL     1      99.258 133.096 168.763  0.00  0.00    +0.000 A 
ENDBRANCH   1  17
TORSDOF 3
ENDMDL
MODEL 14
REMARK VINA RESULT:      -7.5     58.125     59.683
REMARK  Name = 
REMARK  3 active torsions:
REMARK  status: ('A' for Active; 'I' for Inactive)
REMARK    1  A    between atoms: S_1  and  C_7
REMARK    2  A    between atoms: C_2  and  C_11
REMARK    3  A    between atoms: C_3  and  C_8
REMARK                            x       y       z     vdW  Elec       q    Type
REMARK                         _______ _______ _______ _____ _____    ______ ____
ROOT
ATOM      1  C   UNL     1     113.437 150.827 126.030  0.00  0.00    +0.000 C 
ATOM      2  C   UNL     1     113.116 150.252 125.756  0.00  0.00    +0.000 C 
ATOM      3  C   UNL     1     113.667 150.625 126.688  0.00  0.00    +0.000 C 
ATOM      4  O   UNL     1     113.474 149.938 126.779  0.00  0.00    +0.000 OA
ATOM      5  C   UNL     1     113.147 149.741 126.208  0.00  0.00    +0.000 C 
ATOM      6  O   UNL     1     114.011 151.024 127.146  0.00  0.00    +0.000 OA
ENDROOT
BRANCH   2   8
ATOM      7  C   UNL     1     112.178 149.837 123.871  0.00  0.00    +0.000 A 
ATOM      8  C   UNL     1     112.786 150.121 125.127  0.00  0.00    +0.000 A 
ATOM      9  C   UNL     1     112.851 149.611 124.004  0.00  0.00    +0.000 A 
ATOM     10  C   UNL     1     111.818 150.201 124.367  0.00  0.00    +0.000 A 
ATOM     11  C   UNL     1     113.145 149.757 124.631  0.00  0.00    +0.000 A 
ATOM     12  C   UNL     1     112.138 150.333 124.988  0.00  0.00    +0.000 A 
BRANCH   7  13
ATOM     13  S   UNL     1     111.876 149.686 123.225  0.00  0.00    +0.000 S 
ATOM     14  O   UNL     1     112.427 149.278 123.044  0.00  0.00    +0.000 OA
ATOM     15  O   UNL     1     111.886 149.360 122.588  0.00  0.00    +0.000 OA
ATOM     16  C   UNL     1     111.244 149.973 123.070  0.00  0.00    +0.000 C 
ENDBRANCH   7  13
ENDBRANCH   2   8
BRANCH   1  17
ATOM     17  C   UNL     1     113.384 151.325 125.540  0.00  0.00    +0.000 A 
ATOM     18  C   UNL     1     112.810 151.744 125.501  0.00  0.00    +0.000 A 
ATOM     19  C   UNL     1     113.922 151.402 125.080  0.00  0.00    +0.000 A 
ATOM     20  C   UNL     1     113.882 151.915 124.566  0.00  0.00    +0.000 A 
ATOM     21  C   UNL     1     112.776 152.239 125.002  0.00  0.00    +0.000 A 
ATOM     22  C   UNL     1     113.307 152.334 124.527  0.00  0.00    +0.000 A 
ENDBRANCH   1  17
TORSDOF 3
ENDMDL
MODEL 15
REMARK VINA RESULT:      -7.5     11.956     13.773
REMARK  Name = 
REMARK  3 active torsions:
REMARK  status: ('A' for Active; 'I' for Inactive)
REMARK    1  A    between atoms: S_1  and  C_7
REMARK    2  A    between atoms: C_2  and  C_11
REMARK    3  A    between atoms: C_3  and  C_8
REMARK                            x       y       z     vdW  Elec       q    Type
REMARK                         _______ _______ _______ _____ _____    ______ ____
ROOT
ATOM      1  C   UNL     1     120.292 124.519 169.171  0.00  0.00    +0.000 C 
ATOM      2  C   UNL     1     120.987 124.652 169.080  0.00  0.00    +0.000 C 
ATOM      3  C   UNL     1     120.073 124.979 169.687  0.00  0.00    +0.000 C 
ATOM      4  O   UNL     1     120.645 125.368 169.883  0.00  0.00    +0.000 OA
ATOM      5  C   UNL     1     121.176 125.151 169.505  0.00  0.00    +0.000 C 
ATOM      6  O   UNL     1     119.426 125.033 169.944  0.00  0.00    +0.000 OA
ENDROOT
BRANCH   2   8
ATOM      7  C   UNL     1     122.510 123.793 167.837  0.00  0.00    +0.000 A 
ATOM      8  C   UNL     1     121.493 124.372 168.648  0.00  0.00    +0.000 A 
ATOM      9  C   UNL     1     122.457 123.608 168.534  0.00  0.00    +0.000 A 
ATOM     10  C   UNL     1     122.055 124.263 167.556  0.00  0.00    +0.000 A 
ATOM     11  C   UNL     1     121.949 123.902 168.929  0.00  0.00    +0.000 A 
ATOM     12  C   UNL     1     121.554 124.541 167.976  0.00  0.00    +0.000 A 
BRANCH   7  13
ATOM     13  S   UNL     1     123.034 123.490 167.431  0.00  0.00    +0.000 S 
ATOM     14  O   UNL     1     122.979 124.003 166.945  0.00  0.00    +0.000 OA
ATOM     15  O   UNL     1     123.454 123.480 166.851  0.00  0.00    +0.000 OA
ATOM     16  C   UNL     1     123.338 122.889 167.663  0.00  0.00    +0.000 C 
ENDBRANCH   7  13
ENDBRANCH   2   8
BRANCH   1  17
ATOM     17  C   UNL     1     120.138 124.004 168.721  0.00  0.00    +0.000 A 
ATOM     18  C   UNL     1     120.221 123.320 168.899  0.00  0.00    +0.000 A 
ATOM     19  C   UNL     1     119.893 124.184 168.077  0.00  0.00    +0.000 A 
ATOM     20  C   UNL     1     119.728 123.661 167.599  0.00  0.00    +0.000 A 
ATOM     21  C   UNL     1     120.061 122.819 168.434  0.00  0.00    +0.000 A 
ATOM     22  C   UNL     1     119.812 122.977 167.778  0.00  0.00    +0.000 A 
ENDBRANCH   1  17
TORSDOF 3
ENDMDL
MODEL 16
REMARK VINA RESULT:      -7.4     84.820     86.155
REMARK  Name = 
REMARK  3 active torsions:
REMARK  status: ('A' for Active; 'I' for Inactive)
REMARK    1  A    between atoms: S_1  and  C_7
REMARK    2  A    between atoms: C_2  and  C_11
REMARK    3  A    between atoms: C_3  and  C_8
REMARK                            x       y       z     vdW  Elec       q    Type
REMARK                         _______ _______ _______ _____ _____    ______ ____
ROOT
ATOM      1  C   UNL     1     137.076 152.994  94.086  0.00  0.00    +0.000 C 
ATOM      2  C   UNL     1     137.050 152.572  93.512  0.00  0.00    +0.000 C 
ATOM      3  C   UNL     1     137.050 152.547  94.656  0.00  0.00    +0.000 C 
ATOM      4  O   UNL     1     137.009 151.876  94.400  0.00  0.00    +0.000 OA
ATOM      5  C   UNL     1     137.011 151.921  93.715  0.00  0.00    +0.000 C 
ATOM      6  O   UNL     1     137.062 152.735  95.329  0.00  0.00    +0.000 OA
ENDROOT
BRANCH   2   8
ATOM      7  C   UNL     1     137.018 152.943  91.399  0.00  0.00    +0.000 A 
ATOM      8  C   UNL     1     137.057 152.699  92.801  0.00  0.00    +0.000 A 
ATOM      9  C   UNL     1     136.407 152.797  91.755  0.00  0.00    +0.000 A 
ATOM     10  C   UNL     1     137.639 152.965  91.747  0.00  0.00    +0.000 A 
ATOM     11  C   UNL     1     136.436 152.677  92.453  0.00  0.00    +0.000 A 
ATOM     12  C   UNL     1     137.638 152.841  92.447  0.00  0.00    +0.000 A 
BRANCH   7  13
ATOM     13  S   UNL     1     136.987 153.066  90.681  0.00  0.00    +0.000 S 
ATOM     14  O   UNL     1     137.685 152.963  90.615  0.00  0.00    +0.000 OA
ATOM     15  O   UNL     1     137.297 153.121  90.038  0.00  0.00    +0.000 OA
ATOM     16  C   UNL     1     136.355 153.218  90.390  0.00  0.00    +0.000 C 
ENDBRANCH   7  13
ENDBRANCH   2   8
BRANCH   1  17
ATOM     17  C   UNL     1     137.114 153.648  93.837  0.00  0.00    +0.000 A 
ATOM     18  C   UNL     1     136.527 154.018  93.680  0.00  0.00    +0.000 A 
ATOM     19  C   UNL     1     137.759 153.935  93.746  0.00  0.00    +0.000 A 
ATOM     20  C   UNL     1     137.815 154.613  93.489  0.00  0.00    +0.000 A 
ATOM     21  C   UNL     1     136.586 154.673  93.432  0.00  0.00    +0.000 A 
ATOM     22  C   UNL     1     137.227 154.983  93.332  0.00  0.00    +0.000 A 
ENDBRANCH   1  17
TORSDOF 3
ENDMDL
MODEL 17
REMARK VINA RESULT:      -7.4     18.085     18.725
REMARK  Name = 
REMARK  3 active torsions:
REMARK  status: ('A' for Active; 'I' for Inactive)
REMARK    1  A    between atoms: S_1  and  C_7
REMARK    2  A    between atoms: C_2  and  C_11
REMARK    3  A    between atoms: C_3  and  C_8
REMARK                            x       y       z     vdW  Elec       q    Type
REMARK                         _______ _______ _______ _____ _____    ______ ____
ROOT
ATOM      1  C   UNL     1     124.384 108.290 177.997  0.00  0.00    +0.000 C 
ATOM      2  C   UNL     1     123.802 108.495 178.354  0.00  0.00    +0.000 C 
ATOM      3  C   UNL     1     124.844 108.850 178.038  0.00  0.00    +0.000 C 
ATOM      4  O   UNL     1     124.517 109.366 178.418  0.00  0.00    +0.000 OA
ATOM      5  C   UNL     1     123.897 109.128 178.593  0.00  0.00    +0.000 C 
ATOM      6  O   UNL     1     125.483 108.879 177.760  0.00  0.00    +0.000 OA
ENDROOT
BRANCH   2   8
ATOM      7  C   UNL     1     121.942 107.537 178.833  0.00  0.00    +0.000 A 
ATOM      8  C   UNL     1     123.170 108.177 178.499  0.00  0.00    +0.000 A 
ATOM      9  C   UNL     1     122.473 107.576 179.323  0.00  0.00    +0.000 A 
ATOM     10  C   UNL     1     122.033 107.818 178.185  0.00  0.00    +0.000 A 
ATOM     11  C   UNL     1     123.080 107.896 179.147  0.00  0.00    +0.000 A 
ATOM     12  C   UNL     1     122.653 108.133 178.036  0.00  0.00    +0.000 A 
BRANCH   7  13
ATOM     13  S   UNL     1     121.318 107.208 179.015  0.00  0.00    +0.000 S 
ATOM     14  O   UNL     1     120.972 107.535 178.489  0.00  0.00    +0.000 OA
ATOM     15  O   UNL     1     120.620 107.085 178.916  0.00  0.00    +0.000 OA
ATOM     16  C   UNL     1     121.320 106.759 179.567  0.00  0.00    +0.000 C 
ENDBRANCH   7  13
ENDBRANCH   2   8
BRANCH   1  17
ATOM     17  C   UNL     1     124.247 107.641 177.769  0.00  0.00    +0.000 A 
ATOM     18  C   UNL     1     124.375 107.073 178.178  0.00  0.00    +0.000 A 
ATOM     19  C   UNL     1     123.977 107.565 177.116  0.00  0.00    +0.000 A 
ATOM     20  C   UNL     1     123.830 106.898 176.866  0.00  0.00    +0.000 A 
ATOM     21  C   UNL     1     124.231 106.430 177.932  0.00  0.00    +0.000 A 
ATOM     22  C   UNL     1     123.957 106.330 177.275  0.00  0.00    +0.000 A 
ENDBRANCH   1  17
TORSDOF 3
ENDMDL
MODEL 18
REMARK VINA RESULT:      -7.3     79.563     80.983
REMARK  Name = 
REMARK  3 active torsions:
REMARK  status: ('A' for Active; 'I' for Inactive)
REMARK    1  A    between atoms: S_1  and  C_7
REMARK    2  A    between atoms: C_2  and  C_11
REMARK    3  A    between atoms: C_3  and  C_8
REMARK                            x       y       z     vdW  Elec       q    Type
REMARK                         _______ _______ _______ _____ _____    ______ ____
ROOT
ATOM      1  C   UNL     1     104.443 141.773 101.290  0.00  0.00    +0.000 C 
ATOM      2  C   UNL     1     103.820 141.485 101.100  0.00  0.00    +0.000 C 
ATOM      3  C   UNL     1     104.341 142.034 101.958  0.00  0.00    +0.000 C 
ATOM      4  O   UNL     1     103.660 141.891 102.141  0.00  0.00    +0.000 OA
ATOM      5  C   UNL     1     103.372 141.563 101.610  0.00  0.00    +0.000 C 
ATOM      6  O   UNL     1     104.816 142.363 102.351  0.00  0.00    +0.000 OA
ENDROOT
BRANCH   2   8
ATOM      7  C   UNL     1     103.112 140.524  99.316  0.00  0.00    +0.000 A 
ATOM      8  C   UNL     1     103.590 141.147 100.504  0.00  0.00    +0.000 A 
ATOM      9  C   UNL     1     102.941 141.213  99.455  0.00  0.00    +0.000 A 
ATOM     10  C   UNL     1     103.518 140.157  99.772  0.00  0.00    +0.000 A 
ATOM     11  C   UNL     1     103.184 141.514 100.049  0.00  0.00    +0.000 A 
ATOM     12  C   UNL     1     103.747 140.485 100.360  0.00  0.00    +0.000 A 
BRANCH   7  13
ATOM     13  S   UNL     1     102.862 140.216  98.705  0.00  0.00    +0.000 S 
ATOM     14  O   UNL     1     102.942 139.567  98.979  0.00  0.00    +0.000 OA
ATOM     15  O   UNL     1     102.687 139.640  98.317  0.00  0.00    +0.000 OA
ATOM     16  C   UNL     1     102.670 140.639  98.166  0.00  0.00    +0.000 C 
ENDBRANCH   7  13
ENDBRANCH   2   8
BRANCH   1  17
ATOM     17  C   UNL     1     104.872 141.673 100.744  0.00  0.00    +0.000 A 
ATOM     18  C   UNL     1     105.248 141.072 100.676  0.00  0.00    +0.000 A 
ATOM     19  C   UNL     1     104.923 142.189 100.257  0.00  0.00    +0.000 A 
ATOM     20  C   UNL     1     105.363 142.099  99.686  0.00  0.00    +0.000 A 
ATOM     21  C   UNL     1     105.673 140.990 100.122  0.00  0.00    +0.000 A 
ATOM     22  C   UNL     1     105.739 141.499  99.618  0.00  0.00    +0.000 A 
ENDBRANCH   1  17
TORSDOF 3
ENDMDL
MODEL 19
REMARK VINA RESULT:      -7.2     30.084     31.411
REMARK  Name = 
REMARK  3 active torsions:
REMARK  status: ('A' for Active; 'I' for Inactive)
REMARK    1  A    between atoms: S_1  and  C_7
REMARK    2  A    between atoms: C_2  and  C_11
REMARK    3  A    between atoms: C_3  and  C_8
REMARK                            x       y       z     vdW  Elec       q    Type
REMARK                         _______ _______ _______ _____ _____    ______ ____
ROOT
ATOM      1  C   UNL     1     131.430 123.361 141.102  0.00  0.00    +0.000 C 
ATOM      2  C   UNL     1     131.648 123.932 141.470  0.00  0.00    +0.000 C 
ATOM      3  C   UNL     1     130.831 123.573 140.754  0.00  0.00    +0.000 C 
ATOM      4  O   UNL     1     130.714 124.261 140.928  0.00  0.00    +0.000 OA
ATOM      5  C   UNL     1     131.217 124.449 141.356  0.00  0.00    +0.000 C 
ATOM      6  O   UNL     1     130.440 123.180 140.329  0.00  0.00    +0.000 OA
ENDROOT
BRANCH   2   8
ATOM      7  C   UNL     1     133.329 124.320 142.746  0.00  0.00    +0.000 A 
ATOM      8  C   UNL     1     132.206 124.054 141.912  0.00  0.00    +0.000 A 
ATOM      9  C   UNL     1     133.328 124.548 142.060  0.00  0.00    +0.000 A 
ATOM     10  C   UNL     1     132.770 123.963 143.005  0.00  0.00    +0.000 A 
ATOM     11  C   UNL     1     132.765 124.411 141.653  0.00  0.00    +0.000 A 
ATOM     12  C   UNL     1     132.218 123.840 142.574  0.00  0.00    +0.000 A 
BRANCH   7  13
ATOM     13  S   UNL     1     133.909 124.462 143.163  0.00  0.00    +0.000 S 
ATOM     14  O   UNL     1     133.568 124.239 143.744  0.00  0.00    +0.000 OA
ATOM     15  O   UNL     1     134.239 124.475 143.799  0.00  0.00    +0.000 OA
ATOM     16  C   UNL     1     134.493 124.727 142.854  0.00  0.00    +0.000 C 
ENDBRANCH   7  13
ENDBRANCH   2   8
BRANCH   1  17
ATOM     17  C   UNL     1     131.895 122.856 141.244  0.00  0.00    +0.000 A 
ATOM     18  C   UNL     1     131.811 122.426 141.805  0.00  0.00    +0.000 A 
ATOM     19  C   UNL     1     132.455 122.783 140.812  0.00  0.00    +0.000 A 
ATOM     20  C   UNL     1     132.945 122.264 140.947  0.00  0.00    +0.000 A 
ATOM     21  C   UNL     1     132.288 121.925 141.931  0.00  0.00    +0.000 A 
ATOM     22  C   UNL     1     132.862 121.833 141.508  0.00  0.00    +0.000 A 
ENDBRANCH   1  17
TORSDOF 3
ENDMDL
MODEL 20
REMARK VINA RESULT:      -7.2     26.732     28.113
REMARK  Name = 
REMARK  3 active torsions:
REMARK  status: ('A' for Active; 'I' for Inactive)
REMARK    1  A    between atoms: S_1  and  C_7
REMARK    2  A    between atoms: C_2  and  C_11
REMARK    3  A    between atoms: C_3  and  C_8
REMARK                            x       y       z     vdW  Elec       q    Type
REMARK                         _______ _______ _______ _____ _____    ______ ____
ROOT
ATOM      1  C   UNL     1     134.803 125.234 145.633  0.00  0.00    +0.000 C 
ATOM      2  C   UNL     1     134.460 125.165 145.011  0.00  0.00    +0.000 C 
ATOM      3  C   UNL     1     135.337 125.708 145.508  0.00  0.00    +0.000 C 
ATOM      4  O   UNL     1     135.292 125.903 144.818  0.00  0.00    +0.000 OA
ATOM      5  C   UNL     1     134.760 125.564 144.545  0.00  0.00    +0.000 C 
ATOM      6  O   UNL     1     135.807 125.932 145.974  0.00  0.00    +0.000 OA
ENDROOT
BRANCH   2   8
ATOM      7  C   UNL     1     132.801 123.973 144.358  0.00  0.00    +0.000 A 
ATOM      8  C   UNL     1     133.891 124.775 144.799  0.00  0.00    +0.000 A 
ATOM      9  C   UNL     1     133.478 123.776 144.202  0.00  0.00    +0.000 A 
ATOM     10  C   UNL     1     132.678 124.567 144.730  0.00  0.00    +0.000 A 
ATOM     11  C   UNL     1     134.014 124.181 144.426  0.00  0.00    +0.000 A 
ATOM     12  C   UNL     1     133.234 124.954 144.942  0.00  0.00    +0.000 A 
BRANCH   7  13
ATOM     13  S   UNL     1     132.250 123.555 144.127  0.00  0.00    +0.000 S 
ATOM     14  O   UNL     1     132.701 123.055 143.902  0.00  0.00    +0.000 OA
ATOM     15  O   UNL     1     132.000 122.957 143.822  0.00  0.00    +0.000 OA
ATOM     16  C   UNL     1     131.584 123.792 144.212  0.00  0.00    +0.000 C 
ENDBRANCH   7  13
ENDBRANCH   2   8
BRANCH   1  17
ATOM     17  C   UNL     1     134.468 124.812 146.081  0.00  0.00    +0.000 A 
ATOM     18  C   UNL     1     133.909 125.043 146.457  0.00  0.00    +0.000 A 
ATOM     19  C   UNL     1     134.702 124.144 146.152  0.00  0.00    +0.000 A 
ATOM     20  C   UNL     1     134.364 123.695 146.614  0.00  0.00    +0.000 A 
ATOM     21  C   UNL     1     133.586 124.605 146.902  0.00  0.00    +0.000 A 
ATOM     22  C   UNL     1     133.805 123.926 146.989  0.00  0.00    +0.000 A 
ENDBRANCH   1  17
TORSDOF 3
ENDMDL
