REMARK  Name = 
REMARK  4 active torsions:
REMARK  status: ('A' for Active; 'I' for Inactive)
REMARK    1  A    between atoms: C_1  and  C_2
REMARK    2  A    between atoms: C_2  and  C_6
REMARK    3  A    between atoms: C_3  and  O_11
REMARK    4  A    between atoms: C_7  and  O_12
REMARK                            x       y       z     vdW  Elec       q    Type
REMARK                         _______ _______ _______ _____ _____    ______ ____
ROOT
ATOM      1  C   UNL     1       2.242  -3.317   0.000  0.00  0.00    +0.000 A 
ATOM      2  C   UNL     1       2.854  -3.675   0.000  0.00  0.00    +0.000 A 
ATOM      3  C   UNL     1       1.617  -3.679   0.000  0.00  0.00    +0.000 A 
ATOM      4  C   UNL     1       2.854  -4.392   0.000  0.00  0.00    +0.000 A 
ATOM      5  C   UNL     1       1.625  -4.392   0.000  0.00  0.00    +0.000 A 
ATOM      6  C   UNL     1       2.242  -4.742   0.000  0.00  0.00    +0.000 A 
ENDROOT
BRANCH   1   7
ATOM      7  C   UNL     1       2.250  -2.604   0.000  0.00  0.00    +0.000 C 
ATOM      8  O   UNL     1       1.629  -2.254   0.000  0.00  0.00    +0.000 OA
BRANCH   7   9
ATOM      9  C   UNL     1       2.879  -2.254   0.000  0.00  0.00    +0.000 C 
ATOM     10  N   UNL     1       3.362  -2.517   0.000  0.00  0.00    +0.000 NA
ATOM     11  C   UNL     1       2.879  -1.542   0.000  0.00  0.00    +0.000 C 
ENDBRANCH   7   9
ENDBRANCH   1   7
BRANCH   2  12
ATOM     12  O   UNL     1       3.479  -3.304   0.000  0.00  0.00    +0.000 OA
ATOM     13  C   UNL     1       4.092  -3.642   0.000  0.00  0.00    +0.000 C 
ENDBRANCH   2  12
BRANCH   5  14
ATOM     14  O   UNL     1       0.979  -4.742   0.000  0.00  0.00    +0.000 OA
ATOM     15  C   UNL     1       0.362  -4.367   0.000  0.00  0.00    +0.000 C 
ENDBRANCH   5  14
TORSDOF 4
