
     RDKit          2D

 52 56  0  0  1  0  0  0  0  0999 V2000
   -0.3973    1.8833    0.0000 C   0  0  0  0  0  0  0  0  0  0  0  0
   -0.3973    2.7089    0.0000 C   0  0  0  0  0  0  0  0  0  0  0  0
    0.3251    0.6449    0.0000 C   0  0  0  0  0  0  0  0  0  0  0  0
   -1.0990    1.4705    0.0000 C   0  0  0  0  0  0  0  0  0  0  0  0
   -1.0990    3.1216    0.0000 O   0  0  0  0  0  0  0  0  0  0  0  0
    1.0371    0.2322    0.0000 C   0  0  0  0  0  0  0  0  0  0  0  0
   -1.8213    2.7089    0.0000 C   0  0  0  0  0  0  0  0  0  0  0  0
   -1.8213    1.8833    0.0000 C   0  0  0  0  0  0  0  0  0  0  0  0
   -1.8213   -3.0649    0.0000 C   0  0  0  0  0  0  0  0  0  0  0  0
    0.3251    1.4705    0.0000 O   0  0  0  0  0  0  0  0  0  0  0  0
    1.0371   -0.5882    0.0000 C   0  0  0  0  0  0  0  0  0  0  0  0
   -2.5334   -3.4725    0.0000 C   0  0  0  0  0  0  0  0  0  0  0  0
   -0.3973    0.2322    0.0000 O   0  0  0  0  0  0  0  0  0  0  0  0
   -1.8213   -2.2342    0.0000 C   0  0  0  0  0  0  0  0  0  0  0  0
    0.3251   -0.9959    0.0000 C   0  0  0  0  0  0  0  0  0  0  0  0
   -2.5334   -1.8265    0.0000 O   0  0  0  0  0  0  0  0  0  0  0  0
   -0.3973   -0.5882    0.0000 C   0  0  0  0  0  0  0  0  0  0  0  0
   -3.2454   -3.0649    0.0000 C   0  0  0  0  0  0  0  0  0  0  0  0
    0.3251    3.1216    0.0000 C   0  0  0  0  0  0  0  0  0  0  0  0
   -3.2454   -2.2342    0.0000 C   0  0  0  0  0  0  0  0  0  0  0  0
   -2.5334    3.1216    0.0000 C   0  0  0  0  0  0  0  0  0  0  0  0
    1.0371    2.7089    0.0000 C   0  0  0  0  0  0  0  0  0  0  0  0
   -2.5334    1.4705    0.0000 C   0  0  0  0  0  0  0  0  0  0  0  0
    1.7543    3.1216    0.0000 C   0  0  0  0  0  0  0  0  0  0  0  0
   -1.0990   -1.8265    0.0000 O   0  0  0  0  0  0  0  0  0  0  0  0
   -1.0990    0.6449    0.0000 O   0  0  0  0  0  0  0  0  0  0  0  0
   -1.0990   -0.9959    0.0000 C   0  0  0  0  0  0  0  0  0  0  0  0
    1.7543    3.9420    0.0000 C   0  0  0  0  0  0  0  0  0  0  0  0
    0.3251    3.9420    0.0000 C   0  0  0  0  0  0  0  0  0  0  0  0
    1.0371    4.3599    0.0000 C   0  0  0  0  0  0  0  0  0  0  0  0
    1.7543    0.6449    0.0000 O   0  0  0  0  0  0  0  0  0  0  0  0
   -1.0990   -3.4725    0.0000 O   0  0  0  0  0  0  0  0  0  0  0  0
    1.7543   -0.9959    0.0000 O   0  0  0  0  0  0  0  0  0  0  0  0
   -2.5334   -4.2929    0.0000 O   0  0  0  0  0  0  0  0  0  0  0  0
   -3.2454    2.7089    0.0000 C   0  0  0  0  0  0  0  0  0  0  0  0
    0.3251   -1.8265    0.0000 O   0  0  0  0  0  0  0  0  0  0  0  0
   -3.9627   -3.4725    0.0000 O   0  0  0  0  0  0  0  0  0  0  0  0
   -3.2454    1.8833    0.0000 C   0  0  0  0  0  0  0  0  0  0  0  0
    2.4664    2.7089    0.0000 O   0  0  0  0  0  0  0  0  0  0  0  0
    2.4664    4.3599    0.0000 O   0  0  0  0  0  0  0  0  0  0  0  0
   -3.9627    3.1216    0.0000 O   0  0  0  0  0  0  0  0  0  0  0  0
   -3.9627   -1.8265    0.0000 C   0  0  0  0  0  0  0  0  0  0  0  0
    4.6025    3.1216    0.0000 O   0  0  0  0  0  0  0  0  0  0  0  0
    4.6025    3.9420    0.0000 O   0  0  0  0  0  0  0  0  0  0  0  0
   -3.9627    1.4705    0.0000 O   0  0  0  0  0  0  0  0  0  0  0  0
    3.8905    4.3599    0.0000 C   0  0  0  0  0  0  0  0  0  0  0  0
    3.8905    2.7089    0.0000 C   0  0  0  0  0  0  0  0  0  0  0  0
   -4.6695    1.8833    0.0000 C   0  0  0  0  0  0  0  0  0  0  0  0
    3.1784    3.1216    0.0000 C   0  0  0  0  0  0  0  0  0  0  0  0
    3.1784    3.9420    0.0000 C   0  0  0  0  0  0  0  0  0  0  0  0
   -4.6695    2.7089    0.0000 C   0  0  0  0  0  0  0  0  0  0  0  0
   -2.5334    0.6455    0.0000 O   0  0  0  0  0  0  0  0  0  0  0  0
  2  1  2  0
  3 10  1  1
  4  1  1  0
  5  2  1  0
  6  3  1  0
  7  8  2  0
  8  4  1  0
  9 14  1  0
 10  1  1  0
 11  6  1  0
 12  9  1  0
 13  3  1  0
 14 25  1  1
 15 17  1  0
 16 14  1  0
 17 13  1  0
 18 20  1  0
 19  2  1  0
 20 16  1  0
 21  7  1  0
 22 19  1  0
 23  8  1  0
 24 22  2  0
 25 27  1  0
 26  4  2  0
 17 27  1  1
 28 30  2  0
 29 19  2  0
 30 29  1  0
  6 31  1  6
  9 32  1  6
 11 33  1  1
 12 34  1  6
 35 38  1  0
 15 36  1  6
 18 37  1  1
 38 23  2  0
 39 24  1  0
 40 28  1  0
 41 35  1  0
 20 42  1  6
 43 47  1  0
 44 46  1  0
 45 48  1  0
 46 50  1  0
 47 49  1  0
 48 51  1  0
 49 39  1  0
 50 40  1  0
 51 41  1  0
  5  7  1  0
 11 15  1  0
 21 35  2  0
 24 28  1  0
 12 18  1  0
 23 52  1  0
M  END


> <chembl_id>
CHEMBL3182320

> <chembl_pref_name>
TROXERUTIN
