REMARK  Name = 
REMARK  7 active torsions:
REMARK  status: ('A' for Active; 'I' for Inactive)
REMARK    1  A    between atoms: C_2  and  C_11
REMARK    2  A    between atoms: C_2  and  O_13
REMARK    3  A    between atoms: C_11  and  C_27
REMARK    4  A    between atoms: O_13  and  C_17
REMARK    5  A    between atoms: C_17  and  C_29
REMARK    6  A    between atoms: C_29  and  C_30
REMARK    7  A    between atoms: C_30  and  C_31
REMARK                            x       y       z     vdW  Elec       q    Type
REMARK                         _______ _______ _______ _____ _____    ______ ____
ROOT
ATOM      1  C   UNL     1       2.067  -2.700   0.000  0.00  0.00    +0.000 C 
ATOM      2  C   UNL     1       2.750  -2.479   0.000  0.00  0.00    +0.000 C 
ATOM      3  C   UNL     1       0.237  -3.754   0.000  0.00  0.00    +0.000 C 
ATOM      4  C   UNL     1       1.454  -3.754   0.000  0.00  0.00    +0.000 C 
ATOM      5  C   UNL     1       2.067  -3.404   0.000  0.00  0.00    +0.000 C 
ATOM      6  C   UNL     1       0.850  -3.404   0.000  0.00  0.00    +0.000 C 
ATOM      7  C   UNL     1       0.237  -4.454   0.000  0.00  0.00    +0.000 C 
ATOM      8  C   UNL     1       1.454  -2.350   0.000  0.00  0.00    +0.000 C 
ATOM      9  C   UNL     1       0.850  -2.700   0.000  0.00  0.00    +0.000 C 
ATOM     10  C   UNL     1      -0.375  -4.817   0.000  0.00  0.00    +0.000 C 
ATOM     11  C   UNL     1       3.167  -3.042   0.000  0.00  0.00    +0.000 C 
ATOM     12  C   UNL     1       2.750  -3.617   0.000  0.00  0.00    +0.000 C 
ATOM     13  C   UNL     1       1.454  -4.454   0.000  0.00  0.00    +0.000 C 
ATOM     14  C   UNL     1      -0.375  -3.404   0.000  0.00  0.00    +0.000 C 
ATOM     15  C   UNL     1       0.850  -4.817   0.000  0.00  0.00    +0.000 C 
ATOM     16  C   UNL     1      -0.996  -4.454   0.000  0.00  0.00    +0.000 C 
ATOM     17  O   UNL     1      -1.608  -4.817   0.000  0.00  0.00    +0.000 OA
ATOM     18  C   UNL     1       2.154  -1.992   0.000  0.00  0.00    +0.000 C 
ATOM     19  C   UNL     1      -0.996  -3.754   0.000  0.00  0.00    +0.000 C 
ATOM     20  O   UNL     1       0.237  -2.350   0.000  0.00  0.00    +0.000 OA
ATOM     21  C   UNL     1       0.237  -3.042   0.000  0.00  0.00    +0.000 C 
ENDROOT
BRANCH   2  22
ATOM     22  C   UNL     1       2.742  -1.775   0.000  0.00  0.00    +0.000 C 
ATOM     23  O   UNL     1       2.129  -1.417   0.000  0.00  0.00    +0.000 OA
BRANCH  22  24
ATOM     24  C   UNL     1       3.354  -1.417   0.000  0.00  0.00    +0.000 C 
ATOM     25  O   UNL     1       3.350  -0.704   0.000  0.00  0.00    +0.000 OA
ENDBRANCH  22  24
ENDBRANCH   2  22
BRANCH   2  26
ATOM     26  O   UNL     1       3.362  -2.125   0.000  0.00  0.00    +0.000 OA
BRANCH  26  27
ATOM     27  C   UNL     1       3.975  -2.475   0.000  0.00  0.00    +0.000 C 
ATOM     28  O   UNL     1       3.979  -3.179   0.000  0.00  0.00    +0.000 OA
BRANCH  27  29
ATOM     29  C   UNL     1       4.588  -2.117   0.000  0.00  0.00    +0.000 C 
BRANCH  29  30
ATOM     30  C   UNL     1       5.204  -2.467   0.000  0.00  0.00    +0.000 C 
BRANCH  30  31
ATOM     31  C   UNL     1       5.812  -2.104   0.000  0.00  0.00    +0.000 C 
ATOM     32  C   UNL     1       6.429  -2.454   0.000  0.00  0.00    +0.000 C 
ENDBRANCH  30  31
ENDBRANCH  29  30
ENDBRANCH  27  29
ENDBRANCH  26  27
ENDBRANCH   2  26
TORSDOF 7
