REMARK  Name = 
REMARK  4 active torsions:
REMARK  status: ('A' for Active; 'I' for Inactive)
REMARK    1  A    between atoms: O_6  and  C_31
REMARK    2  A    between atoms: O_6  and  C_36
REMARK    3  A    between atoms: C_15  and  C_26
REMARK    4  A    between atoms: C_23  and  C_32
REMARK                            x       y       z     vdW  Elec       q    Type
REMARK                         _______ _______ _______ _____ _____    ______ ____
ROOT
ATOM      1  O   UNL     1       1.739  -1.601   0.000  0.00  0.00    +0.000 OA
ATOM      2  O   UNL     1      -0.780  -2.011   0.000  0.00  0.00    +0.000 OA
ATOM      3  O   UNL     1       0.341   1.092   0.000  0.00  0.00    +0.000 OA
ATOM      4  O   UNL     1      -0.471   0.947   0.000  0.00  0.00    +0.000 OA
ATOM      5  C   UNL     1       0.593  -0.314   0.000  0.00  0.00    +0.000 C 
ATOM      6  C   UNL     1       1.125  -0.945   0.000  0.00  0.00    +0.000 C 
ATOM      7  C   UNL     1      -0.220  -0.460   0.000  0.00  0.00    +0.000 C 
ATOM      8  C   UNL     1       1.937  -0.800   0.000  0.00  0.00    +0.000 C 
ATOM      9  C   UNL     1       2.217  -0.024   0.000  0.00  0.00    +0.000 C 
ATOM     10  C   UNL     1      -0.500  -1.236   0.000  0.00  0.00    +0.000 C 
ATOM     11  C   UNL     1       0.873   0.462   0.000  0.00  0.00    +0.000 C 
ATOM     12  C   UNL     1       0.844  -1.721   0.000  0.00  0.00    +0.000 C 
ATOM     13  C   UNL     1       1.685   0.607   0.000  0.00  0.00    +0.000 C 
ATOM     14  C   UNL     1      -0.751   0.171   0.000  0.00  0.00    +0.000 C 
ATOM     15  C   UNL     1       3.042  -0.051   0.000  0.00  0.00    +0.000 C 
ATOM     16  C   UNL     1       2.588  -1.306   0.000  0.00  0.00    +0.000 C 
ATOM     17  C   UNL     1       0.032  -1.866   0.000  0.00  0.00    +0.000 C 
ATOM     18  C   UNL     1      -1.312  -1.381   0.000  0.00  0.00    +0.000 C 
ATOM     19  C   UNL     1       3.271  -0.843   0.000  0.00  0.00    +0.000 C 
ATOM     20  C   UNL     1       2.577   0.718   0.000  0.00  0.00    +0.000 C 
ATOM     21  C   UNL     1      -1.563   0.026   0.000  0.00  0.00    +0.000 C 
ATOM     22  C   UNL     1      -1.844  -0.750   0.000  0.00  0.00    +0.000 C 
ENDROOT
BRANCH  15  25
ATOM     23  O   UNL     1       4.001   1.856   0.000  0.00  0.00    +0.000 OA
ATOM     24  O   UNL     1       5.445   1.579   0.000  0.00  0.00    +0.000 OA
ATOM     25  C   UNL     1       3.548   0.601   0.000  0.00  0.00    +0.000 C 
ATOM     26  C   UNL     1       4.372   0.574   0.000  0.00  0.00    +0.000 C 
ATOM     27  C   UNL     1       3.318   1.393   0.000  0.00  0.00    +0.000 C 
ATOM     28  C   UNL     1       4.653   1.350   0.000  0.00  0.00    +0.000 C 
ENDBRANCH  15  25
BRANCH   7  30
ATOM     29  O   UNL     1       0.001   1.139   0.000  0.00  0.00    +0.000 OA
ATOM     30  C   UNL     1       0.061   0.316   0.000  0.00  0.00    +0.000 C 
ENDBRANCH   7  30
BRANCH  22  31
ATOM     31  O   UNL     1      -2.656  -0.895   0.000  0.00  0.00    +0.000 OA
BRANCH  31  36
ATOM     32  O   UNL     1      -2.907   0.511   0.000  0.00  0.00    +0.000 OA
ATOM     33  O   UNL     1      -4.280  -1.186   0.000  0.00  0.00    +0.000 OA
ATOM     34  O   UNL     1      -5.344   0.076   0.000  0.00  0.00    +0.000 OA
ATOM     35  O   UNL     1      -4.783   1.628   0.000  0.00  0.00    +0.000 OA
ATOM     36  C   UNL     1      -3.188  -0.265   0.000  0.00  0.00    +0.000 C 
ATOM     37  C   UNL     1      -4.000  -0.410   0.000  0.00  0.00    +0.000 C 
ATOM     38  C   UNL     1      -4.532   0.221   0.000  0.00  0.00    +0.000 C 
ATOM     39  C   UNL     1      -3.439   1.142   0.000  0.00  0.00    +0.000 C 
ATOM     40  C   UNL     1      -4.251   0.997   0.000  0.00  0.00    +0.000 C 
ATOM     41  C   UNL     1      -3.159   1.918   0.000  0.00  0.00    +0.000 C 
ENDBRANCH  31  36
ENDBRANCH  22  31
TORSDOF 4
