REMARK  Name = 
REMARK  3 active torsions:
REMARK  status: ('A' for Active; 'I' for Inactive)
REMARK    1  A    between atoms: S_1  and  O_5
REMARK    2  A    between atoms: N_7  and  C_11
REMARK    3  A    between atoms: C_9  and  O_14
REMARK                            x       y       z     vdW  Elec       q    Type
REMARK                         _______ _______ _______ _____ _____    ______ ____
ROOT
ATOM      1  S   UNL     1       3.375   0.458   0.000  0.00  0.00    +0.000 S 
ATOM      2  O   UNL     1       2.500   0.458   0.000  0.00  0.00    +0.000 OA
ATOM      3  O   UNL     1       3.375  -0.550   0.000  0.00  0.00    +0.000 OA
ATOM      4  O   UNL     1       4.242   0.458   0.000  0.00  0.00    +0.000 OA
ENDROOT
BRANCH   1   5
ATOM      5  O   UNL     1       3.375   1.221   0.000  0.00  0.00    +0.000 OA
ATOM      6  C   UNL     1       3.375   1.858   0.000  0.00  0.00    +0.000 C 
ENDBRANCH   1   5
TORSDOF 1
REMARK  Name = 
REMARK  3 active torsions:
REMARK  status: ('A' for Active; 'I' for Inactive)
REMARK    1  A    between atoms: S_1  and  O_5
REMARK    2  A    between atoms: N_7  and  C_11
REMARK    3  A    between atoms: C_9  and  O_14
REMARK                            x       y       z     vdW  Elec       q    Type
REMARK                         _______ _______ _______ _____ _____    ______ ____
ROOT
ATOM      1  N   UNL     1      -1.696   0.458   0.000  0.00  0.00    +0.000 N 
ATOM      2  N   UNL     1      -1.258   1.221   0.000  0.00  0.00    +0.000 NA
ATOM      3  C   UNL     1      -1.258  -0.329   0.000  0.00  0.00    +0.000 A 
ATOM      4  C   UNL     1      -0.371  -0.329   0.000  0.00  0.00    +0.000 A 
ATOM      5  C   UNL     1      -0.371   1.221   0.000  0.00  0.00    +0.000 A 
ATOM      6  C   UNL     1       0.067   0.458   0.000  0.00  0.00    +0.000 A 
ATOM      7  N   UNL     1       0.954   0.458   0.000  0.00  0.00    +0.000 NA
ENDROOT
BRANCH   1   8
ATOM      8  C   UNL     1      -2.583   0.458   0.000  0.00  0.00    +0.000 A 
ATOM      9  C   UNL     1      -3.021  -0.329   0.000  0.00  0.00    +0.000 A 
ATOM     10  C   UNL     1      -3.021   1.221   0.000  0.00  0.00    +0.000 A 
ATOM     11  C   UNL     1      -3.900  -0.329   0.000  0.00  0.00    +0.000 A 
ATOM     12  C   UNL     1      -3.900   1.221   0.000  0.00  0.00    +0.000 A 
ATOM     13  C   UNL     1      -4.346   0.458   0.000  0.00  0.00    +0.000 A 
ENDBRANCH   1   8
BRANCH   3  14
ATOM     14  O   UNL     1      -1.721  -1.092   0.000  0.00  0.00    +0.000 OA
ATOM     15  C   UNL     1      -1.271  -1.854   0.000  0.00  0.00    +0.000 C 
ENDBRANCH   3  14
TORSDOF 2
