REMARK  Name = 
REMARK  3 active torsions:
REMARK  status: ('A' for Active; 'I' for Inactive)
REMARK    1  A    between atoms: C_1  and  C_2
REMARK    2  A    between atoms: C_1  and  C_4
REMARK    3  A    between atoms: C_4  and  C_7
REMARK                            x       y       z     vdW  Elec       q    Type
REMARK                         _______ _______ _______ _____ _____    ______ ____
ROOT
ATOM      1  C   UNL     1       4.317  -6.067   0.000  0.00  0.00    +0.000 A 
ATOM      2  C   UNL     1       3.704  -5.713   0.000  0.00  0.00    +0.000 A 
ATOM      3  C   UNL     1       4.929  -5.713   0.000  0.00  0.00    +0.000 A 
ATOM      4  C   UNL     1       4.929  -5.000   0.000  0.00  0.00    +0.000 A 
ATOM      5  C   UNL     1       3.704  -5.000   0.000  0.00  0.00    +0.000 A 
ATOM      6  C   UNL     1       4.317  -4.650   0.000  0.00  0.00    +0.000 A 
ATOM      7  O   UNL     1       4.317  -6.775   0.000  0.00  0.00    +0.000 OA
ATOM      8  O   UNL     1       3.092  -6.067   0.000  0.00  0.00    +0.000 OA
ENDROOT
BRANCH   4   9
ATOM      9  C   UNL     1       5.550  -4.650   0.000  0.00  0.00    +0.000 C 
BRANCH   9  10
ATOM     10  C   UNL     1       6.150  -5.004   0.000  0.00  0.00    +0.000 C 
ATOM     11  N   UNL     1       6.492  -5.629   0.000  0.00  0.00    +0.000 NA
ATOM     12  C   UNL     1       5.787  -5.617   0.000  0.00  0.00    +0.000 C 
BRANCH  10  13
ATOM     13  C   UNL     1       6.767  -4.662   0.000  0.00  0.00    +0.000 C 
ATOM     14  O   UNL     1       6.787  -3.954   0.000  0.00  0.00    +0.000 OA
ATOM     15  O   UNL     1       7.367  -5.037   0.000  0.00  0.00    +0.000 OA
ENDBRANCH  10  13
ENDBRANCH   9  10
ENDBRANCH   4   9
TORSDOF 3
