
     RDKit          2D

 21 21  0  0  0  0  0  0  0  0999 V2000
    3.3750    0.4583    0.0000 S   0  0  0  0  0  0  0  0  0  0  0  0
    2.5000    0.4583    0.0000 O   0  0  0  0  0  0  0  0  0  0  0  0
    3.3750   -0.5500    0.0000 O   0  0  0  0  0  0  0  0  0  0  0  0
    4.2417    0.4583    0.0000 O   0  0  0  0  0  0  0  0  0  0  0  0
    3.3750    1.2208    0.0000 O   0  0  0  0  0  0  0  0  0  0  0  0
    3.3750    1.8583    0.0000 C   0  0  0  0  0  0  0  0  0  0  0  0
   -1.6958    0.4583    0.0000 N   0  0  0  0  0  0  0  0  0  0  0  0
   -1.2583    1.2208    0.0000 N   0  0  0  0  0  0  0  0  0  0  0  0
   -1.2583   -0.3292    0.0000 C   0  0  0  0  0  0  0  0  0  0  0  0
   -0.3708   -0.3292    0.0000 C   0  0  0  0  0  0  0  0  0  0  0  0
   -2.5833    0.4583    0.0000 C   0  0  0  0  0  0  0  0  0  0  0  0
   -0.3708    1.2208    0.0000 C   0  0  0  0  0  0  0  0  0  0  0  0
    0.0667    0.4583    0.0000 C   0  0  0  0  0  0  0  0  0  0  0  0
   -1.7208   -1.0917    0.0000 O   0  0  0  0  0  0  0  0  0  0  0  0
    0.9542    0.4583    0.0000 N   0  0  0  0  0  0  0  0  0  0  0  0
   -3.0208   -0.3292    0.0000 C   0  0  0  0  0  0  0  0  0  0  0  0
   -3.0208    1.2208    0.0000 C   0  0  0  0  0  0  0  0  0  0  0  0
   -1.2708   -1.8542    0.0000 C   0  0  0  0  0  0  0  0  0  0  0  0
   -3.9000   -0.3292    0.0000 C   0  0  0  0  0  0  0  0  0  0  0  0
   -3.9000    1.2208    0.0000 C   0  0  0  0  0  0  0  0  0  0  0  0
   -4.3458    0.4583    0.0000 C   0  0  0  0  0  0  0  0  0  0  0  0
  2  1  1  0
  3  1  2  0
  4  1  2  0
  5  1  1  0
  6  5  1  0
  8  7  1  0
  9  7  2  0
 10  9  1  0
 11  7  1  0
 12  8  2  0
 13 10  2  0
 14  9  1  0
 15 13  1  0
 16 11  2  0
 17 11  1  0
 18 14  1  0
 19 16  1  0
 20 17  2  0
 21 19  2  0
 12 13  1  0
 20 21  1  0
M  CHG  2   2  -1   7   1
M  END


> <chembl_id>
CHEMBL2106667

> <chembl_pref_name>
AMEZINIUM METILSULFATE
