REMARK  Name = 
REMARK  3 active torsions:
REMARK  status: ('A' for Active; 'I' for Inactive)
REMARK    1  A    between atoms: C_4  and  O_15
REMARK    2  A    between atoms: C_4  and  C_17
REMARK    3  A    between atoms: O_15  and  C_20
REMARK                            x       y       z     vdW  Elec       q    Type
REMARK                         _______ _______ _______ _____ _____    ______ ____
ROOT
ATOM      1  C   UNL     1       3.379  -5.125   0.000  0.00  0.00    +0.000 C 
ATOM      2  C   UNL     1       3.992  -4.767   0.000  0.00  0.00    +0.000 C 
ATOM      3  C   UNL     1       5.225  -4.071   0.000  0.00  0.00    +0.000 C 
ATOM      4  C   UNL     1       5.900  -3.862   0.000  0.00  0.00    +0.000 C 
ATOM      5  C   UNL     1       3.379  -5.829   0.000  0.00  0.00    +0.000 C 
ATOM      6  C   UNL     1       4.604  -5.129   0.000  0.00  0.00    +0.000 C 
ATOM      7  C   UNL     1       5.217  -4.779   0.000  0.00  0.00    +0.000 C 
ATOM      8  C   UNL     1       3.992  -4.062   0.000  0.00  0.00    +0.000 C 
ATOM      9  C   UNL     1       2.767  -4.767   0.000  0.00  0.00    +0.000 C 
ATOM     10  C   UNL     1       4.612  -3.712   0.000  0.00  0.00    +0.000 C 
ATOM     11  C   UNL     1       4.600  -5.838   0.000  0.00  0.00    +0.000 C 
ATOM     12  C   UNL     1       2.767  -6.188   0.000  0.00  0.00    +0.000 C 
ATOM     13  C   UNL     1       3.987  -6.188   0.000  0.00  0.00    +0.000 C 
ATOM     14  C   UNL     1       6.304  -4.438   0.000  0.00  0.00    +0.000 C 
ATOM     15  C   UNL     1       5.888  -5.004   0.000  0.00  0.00    +0.000 C 
ATOM     16  C   UNL     1       2.154  -5.125   0.000  0.00  0.00    +0.000 C 
ATOM     17  C   UNL     1       2.154  -5.829   0.000  0.00  0.00    +0.000 C 
ATOM     18  F   UNL     1       3.987  -5.479   0.000  0.00  0.00    +0.000 F 
ATOM     19  O   UNL     1       1.542  -6.179   0.000  0.00  0.00    +0.000 OA
ATOM     20  C   UNL     1       3.375  -4.417   0.000  0.00  0.00    +0.000 C 
ATOM     21  C   UNL     1       5.217  -3.367   0.000  0.00  0.00    +0.000 C 
ATOM     22  O   UNL     1       3.379  -3.704   0.000  0.00  0.00    +0.000 OA
ATOM     23  C   UNL     1       3.979  -6.892   0.000  0.00  0.00    +0.000 C 
ENDROOT
BRANCH   4  24
ATOM     24  C   UNL     1       5.892  -3.154   0.000  0.00  0.00    +0.000 C 
ATOM     25  O   UNL     1       5.279  -2.804   0.000  0.00  0.00    +0.000 OA
ATOM     26  C   UNL     1       6.504  -2.792   0.000  0.00  0.00    +0.000 C 
ENDBRANCH   4  24
BRANCH   4  27
ATOM     27  O   UNL     1       6.513  -3.504   0.000  0.00  0.00    +0.000 OA
BRANCH  27  28
ATOM     28  C   UNL     1       7.129  -3.850   0.000  0.00  0.00    +0.000 C 
ATOM     29  O   UNL     1       7.129  -4.554   0.000  0.00  0.00    +0.000 OA
ATOM     30  C   UNL     1       7.737  -3.492   0.000  0.00  0.00    +0.000 C 
ENDBRANCH  27  28
ENDBRANCH   4  27
TORSDOF 3
