
     RDKit          2D

 46 48  0  0  1  0  0  0  0  0999 V2000
    5.0248   -4.8242    0.0000 O   0  0  0  0  0  0  0  0  0  0  0  0
    5.7306   -3.5818    0.0000 O   0  0  0  0  0  0  0  0  0  0  0  0
    7.6020   -3.6626    0.0000 O   0  0  0  0  0  0  0  0  0  0  0  0
    9.5720   -2.7227    0.0000 O   0  0  0  0  0  0  0  0  0  0  0  0
   12.5212   -3.1108    0.0000 O   0  0  0  0  0  0  0  0  0  0  0  0
    6.9531   -1.5786    0.0000 O   0  0  0  0  0  0  0  0  0  0  0  0
    7.1125   -2.9986    0.0000 O   0  0  0  0  0  0  0  0  0  0  0  0
    6.4537   -4.8143    0.0000 N   0  0  0  0  0  0  0  0  0  0  0  0
    9.7313   -4.1427    0.0000 N   0  0  0  0  0  0  0  0  0  0  0  0
   12.3619   -1.6908    0.0000 N   0  0  0  0  0  0  0  0  0  0  0  0
   11.2117   -2.5388    0.0000 N   0  0  0  0  0  0  0  0  0  0  0  0
    8.7521   -2.8147    0.0000 N   0  0  0  0  0  0  0  0  0  0  0  0
    7.3538   -5.8000    0.0000 C   0  0  0  0  0  0  0  0  0  0  0  0
    6.5457   -5.6341    0.0000 C   0  0  0  0  0  0  0  0  0  0  0  0
    7.7613   -5.0827    0.0000 C   0  0  0  0  0  0  0  0  0  0  0  0
    7.2050   -4.4734    0.0000 C   0  0  0  0  0  0  0  0  0  0  0  0
    8.5812   -4.9907    0.0000 C   0  0  0  0  0  0  0  0  0  0  0  0
    5.7363   -4.4068    0.0000 C   0  0  0  0  0  0  0  0  0  0  0  0
    7.6143   -6.5828    0.0000 C   0  0  0  0  0  0  0  0  0  0  0  0
    5.9979   -6.2511    0.0000 C   0  0  0  0  0  0  0  0  0  0  0  0
    8.9114   -4.2347    0.0000 C   0  0  0  0  0  0  0  0  0  0  0  0
    7.0665   -7.1998    0.0000 C   0  0  0  0  0  0  0  0  0  0  0  0
    6.2584   -7.0338    0.0000 C   0  0  0  0  0  0  0  0  0  0  0  0
    8.4218   -3.5707    0.0000 C   0  0  0  0  0  0  0  0  0  0  0  0
   10.0616   -3.3867    0.0000 C   0  0  0  0  0  0  0  0  0  0  0  0
   10.8815   -3.2947    0.0000 C   0  0  0  0  0  0  0  0  0  0  0  0
   12.0316   -2.4468    0.0000 C   0  0  0  0  0  0  0  0  0  0  0  0
   13.1817   -1.5988    0.0000 C   0  0  0  0  0  0  0  0  0  0  0  0
   11.8723   -1.0267    0.0000 C   0  0  0  0  0  0  0  0  0  0  0  0
   11.3711   -3.9587    0.0000 C   0  0  0  0  0  0  0  0  0  0  0  0
    8.2626   -2.1506    0.0000 C   0  0  0  0  0  0  0  0  0  0  0  0
   11.0407   -4.7148    0.0000 C   0  0  0  0  0  0  0  0  0  0  0  0
   13.5120   -0.8428    0.0000 C   0  0  0  0  0  0  0  0  0  0  0  0
   12.2025   -0.2708    0.0000 C   0  0  0  0  0  0  0  0  0  0  0  0
    7.4427   -2.2426    0.0000 C   0  0  0  0  0  0  0  0  0  0  0  0
    4.3075   -4.4167    0.0000 C   0  0  0  0  0  0  0  0  0  0  0  0
   13.0224   -0.1788    0.0000 C   0  0  0  0  0  0  0  0  0  0  0  0
    8.5929   -1.3946    0.0000 C   0  0  0  0  0  0  0  0  0  0  0  0
   13.6713   -2.2629    0.0000 C   0  0  0  0  0  0  0  0  0  0  0  0
   11.0524   -1.1187    0.0000 C   0  0  0  0  0  0  0  0  0  0  0  0
   10.7104   -5.4708    0.0000 C   0  0  0  0  0  0  0  0  0  0  0  0
   11.7968   -5.0451    0.0000 C   0  0  0  0  0  0  0  0  0  0  0  0
   10.2847   -4.3845    0.0000 C   0  0  0  0  0  0  0  0  0  0  0  0
    8.1033   -0.7306    0.0000 C   0  0  0  0  0  0  0  0  0  0  0  0
    8.4336    0.0254    0.0000 C   0  0  0  0  0  0  0  0  0  0  0  0
    7.9440    0.6895    0.0000 C   0  0  0  0  0  0  0  0  0  0  0  0
  1 18  1  0
  1 36  1  0
  2 18  2  0
  3 24  2  0
  4 25  2  0
  5 27  2  0
  6 35  1  0
  7 35  2  0
  8 14  1  0
  8 16  1  0
  8 18  1  0
 21  9  1  6
  9 25  1  0
 10 27  1  0
 10 28  1  0
 10 29  1  0
 11 26  1  0
 11 27  1  0
 12 24  1  0
 12 31  1  0
 13 14  1  0
 13 15  1  0
 13 19  2  0
 14 20  2  0
 15 16  2  0
 15 17  1  0
 17 21  1  0
 19 22  1  0
 20 23  1  0
 21 24  1  0
 22 23  2  0
 25 26  1  0
 26 30  1  1
 28 33  1  0
 28 39  1  6
 29 34  1  0
 29 40  1  6
 30 32  1  0
 31 35  1  0
 31 38  1  1
 32 41  1  0
 32 42  1  0
 32 43  1  0
 33 37  1  0
 34 37  1  0
 38 44  1  0
 44 45  1  0
 45 46  1  0
M  END


> <chembl_id>
CHEMBL1741040

> <chembl_pref_name>
BQ 788
