
     RDKit          2D

 21 22  0  0  0  0  0  0  0  0999 V2000
    5.0964    2.3885    0.0000 Cl  0  0  0  0  0  0  0  0  0  0  0  0
   -2.6111    0.7486    0.0000 C   0  0  0  0  0  0  0  0  0  0  0  0
   -2.6111   -0.7486    0.0000 N   0  0  0  0  0  0  0  0  0  0  0  0
   -1.2964   -1.4973    0.0000 C   0  0  0  0  0  0  0  0  0  0  0  0
   -1.2964    1.4973    0.0000 C   0  0  0  0  0  0  0  0  0  0  0  0
    0.0000    0.7486    0.0000 C   0  0  0  0  0  0  0  0  0  0  0  0
    0.0000   -0.7486    0.0000 C   0  0  0  0  0  0  0  0  0  0  0  0
    1.2964   -1.4973    0.0000 C   0  0  0  0  0  0  0  0  0  0  0  0
    2.5929   -0.7486    0.0000 C   0  0  0  0  0  0  0  0  0  0  0  0
    2.5929    0.7486    0.0000 C   0  0  0  0  0  0  0  0  0  0  0  0
    1.2964    1.4973    0.0000 C   0  0  0  0  0  0  0  0  0  0  0  0
    1.2964    2.9981    0.0000 S   0  0  0  0  0  0  0  0  0  0  0  0
   -0.0028    3.7494    0.0000 N   0  0  0  0  0  0  0  0  0  0  0  0
    2.3358    3.5978    0.0000 O   0  0  0  0  0  0  0  0  0  0  0  0
    2.3356    2.3980    0.0000 O   0  0  0  0  0  0  0  0  0  0  0  0
   -2.6901    3.3565    0.0000 C   0  0  0  0  0  0  0  0  0  0  0  0
   -3.2373    4.7532    0.0000 N   0  0  0  0  0  0  0  0  0  0  0  0
   -2.4864    6.0517    0.0000 C   0  0  0  0  0  0  0  0  0  0  0  0
   -1.2571    2.9134    0.0000 C   0  0  0  0  0  0  0  0  0  0  0  0
    0.0959    5.2534    0.0000 C   0  0  0  0  0  0  0  0  0  0  0  0
   -1.0030    6.2743    0.0000 C   0  0  0  0  0  0  0  0  0  0  0  0
  2  3  2  0
  3  4  1  0
  2  5  1  0
  5  6  2  0
  4  7  2  0
  6  7  1  0
  7  8  1  0
  8  9  2  0
  9 10  1  0
  6 11  1  0
 10 11  2  0
 11 12  1  0
 12 13  1  0
 12 14  2  0
 12 15  2  0
 16 17  1  0
 17 18  1  0
 13 19  1  0
 16 19  1  0
 13 20  1  0
 18 21  1  0
 20 21  1  0
M  END


> <chembl_id>
CHEMBL541388

> <chembl_pref_name>
FASUDIL HYDROCHLORIDE
