REMARK  Name = 
REMARK  3 active torsions:
REMARK  status: ('A' for Active; 'I' for Inactive)
REMARK    1  A    between atoms: S_4  and  C_5
REMARK    2  A    between atoms: C_9  and  C_17
REMARK    3  A    between atoms: C_17  and  C_19
REMARK                            x       y       z     vdW  Elec       q    Type
REMARK                         _______ _______ _______ _____ _____    ______ ____
ROOT
ATOM      1  S   UNL     1       0.129  -0.479   0.000  0.00  0.00    +0.000 S 
ATOM      2  C   UNL     1      -0.721   0.021   0.000  0.00  0.00    +0.000 A 
ATOM      3  N   UNL     1       1.012   0.021   0.000  0.00  0.00    +0.000 NA
ATOM      4  C   UNL     1      -2.433   0.021   0.000  0.00  0.00    +0.000 A 
ATOM      5  C   UNL     1      -0.721   1.021   0.000  0.00  0.00    +0.000 A 
ATOM      6  C   UNL     1      -1.583  -0.479   0.000  0.00  0.00    +0.000 A 
ATOM      7  N   UNL     1       0.129   1.521   0.000  0.00  0.00    +0.000 NA
ATOM      8  C   UNL     1       1.012   1.021   0.000  0.00  0.00    +0.000 C 
ATOM      9  C   UNL     1      -2.433   1.021   0.000  0.00  0.00    +0.000 A 
ATOM     10  C   UNL     1      -1.583   1.521   0.000  0.00  0.00    +0.000 A 
ATOM     11  O   UNL     1       0.579  -1.442   0.000  0.00  0.00    +0.000 OA
ATOM     12  O   UNL     1      -0.308  -1.438   0.000  0.00  0.00    +0.000 OA
ATOM     13 CL   UNL     1      -3.308   1.512   0.000  0.00  0.00    +0.000 Cl
ENDROOT
BRANCH   4  14
ATOM     14  S   UNL     1      -3.288  -0.479   0.000  0.00  0.00    +0.000 S 
ATOM     15  O   UNL     1      -3.746   0.350   0.000  0.00  0.00    +0.000 OA
ATOM     16  O   UNL     1      -2.800  -1.354   0.000  0.00  0.00    +0.000 OA
ATOM     17  N   UNL     1      -4.221  -0.967   0.000  0.00  0.00    +0.000 NA
ENDBRANCH   4  14
BRANCH   8  18
ATOM     18  C   UNL     1       1.900   1.521   0.000  0.00  0.00    +0.000 C 
BRANCH  18  19
ATOM     19  C   UNL     1       2.767   1.021   0.000  0.00  0.00    +0.000 C 
ATOM     20  C   UNL     1       3.692   1.408   0.000  0.00  0.00    +0.000 C 
ATOM     21  C   UNL     1       2.854   0.033   0.000  0.00  0.00    +0.000 C 
ATOM     22  C   UNL     1       4.342   0.662   0.000  0.00  0.00    +0.000 C 
ATOM     23  C   UNL     1       3.812  -0.192   0.000  0.00  0.00    +0.000 C 
ENDBRANCH  18  19
ENDBRANCH   8  18
TORSDOF 3
