REMARK  Name = 
REMARK  15 active torsions:
REMARK  status: ('A' for Active; 'I' for Inactive)
REMARK    1  A    between atoms: C_1  and  C_4
REMARK    2  A    between atoms: C_2  and  C_3
REMARK    3  A    between atoms: C_3  and  C_7
REMARK    4  A    between atoms: C_4  and  C_5
REMARK    5  A    between atoms: C_5  and  C_6
REMARK    6  A    between atoms: C_6  and  C_20
REMARK    7  A    between atoms: C_8  and  C_9
REMARK    8  A    between atoms: C_9  and  C_10
REMARK    9  A    between atoms: C_11  and  C_12
REMARK   10  A    between atoms: C_12  and  C_13
REMARK   11  A    between atoms: C_14  and  C_15
REMARK   12  A    between atoms: C_15  and  C_16
REMARK   13  A    between atoms: C_17  and  C_18
REMARK   14  A    between atoms: C_20  and  O_21
REMARK   15  A    between atoms: O_21  and  C_23
REMARK                            x       y       z     vdW  Elec       q    Type
REMARK                         _______ _______ _______ _____ _____    ______ ____
ROOT
ATOM      1  C   UNL     1      -7.329 -14.055   0.000  0.00  0.00    +0.000 C 
ATOM      2  C   UNL     1      -7.329 -14.880   0.000  0.00  0.00    +0.000 C 
ENDROOT
BRANCH   1   3
ATOM      3  C   UNL     1      -6.615 -13.642   0.000  0.00  0.00    +0.000 C 
BRANCH   3   5
ATOM      4  C   UNL     1      -5.900 -12.404   0.000  0.00  0.00    +0.000 C 
ATOM      5  C   UNL     1      -6.615 -12.817   0.000  0.00  0.00    +0.000 C 
BRANCH   4   6
ATOM      6  C   UNL     1      -5.186 -12.817   0.000  0.00  0.00    +0.000 C 
BRANCH   6   7
ATOM      7  C   UNL     1      -4.471 -12.404   0.000  0.00  0.00    +0.000 C 
BRANCH   7   8
ATOM      8  C   UNL     1      -3.757 -12.817   0.000  0.00  0.00    +0.000 C 
BRANCH   8   9
ATOM      9  C   UNL     1      -3.042 -12.404   0.000  0.00  0.00    +0.000 C 
ATOM     10  O   UNL     1      -3.042 -11.579   0.000  0.00  0.00    +0.000 OA
BRANCH   9  11
ATOM     11  O   UNL     1      -2.328 -12.817   0.000  0.00  0.00    +0.000 OA
BRANCH  11  12
ATOM     12  C   UNL     1      -1.613 -12.405   0.000  0.00  0.00    +0.000 C 
ATOM     13  C   UNL     1      -0.899 -12.817   0.000  0.00  0.00    +0.000 C 
ENDBRANCH  11  12
ENDBRANCH   9  11
ENDBRANCH   8   9
ENDBRANCH   7   8
ENDBRANCH   6   7
ENDBRANCH   4   6
ENDBRANCH   3   5
ENDBRANCH   1   3
BRANCH   2  14
ATOM     14  C   UNL     1      -6.615 -15.292   0.000  0.00  0.00    +0.000 C 
BRANCH  14  15
ATOM     15  C   UNL     1      -6.615 -16.117   0.000  0.00  0.00    +0.000 C 
ATOM     16  C   UNL     1      -5.900 -16.529   0.000  0.00  0.00    +0.000 C 
BRANCH  16  17
ATOM     17  C   UNL     1      -5.186 -16.117   0.000  0.00  0.00    +0.000 C 
BRANCH  17  18
ATOM     18  C   UNL     1      -4.471 -16.529   0.000  0.00  0.00    +0.000 C 
ATOM     19  C   UNL     1      -3.757 -16.117   0.000  0.00  0.00    +0.000 C 
BRANCH  19  20
ATOM     20  C   UNL     1      -3.757 -15.292   0.000  0.00  0.00    +0.000 C 
BRANCH  20  21
ATOM     21  C   UNL     1      -3.042 -14.880   0.000  0.00  0.00    +0.000 C 
ATOM     22  C   UNL     1      -2.328 -15.292   0.000  0.00  0.00    +0.000 C 
BRANCH  22  23
ATOM     23  C   UNL     1      -2.328 -16.117   0.000  0.00  0.00    +0.000 C 
ATOM     24  C   UNL     1      -1.613 -16.529   0.000  0.00  0.00    +0.000 C 
ENDBRANCH  22  23
ENDBRANCH  20  21
ENDBRANCH  19  20
ENDBRANCH  17  18
ENDBRANCH  16  17
ENDBRANCH  14  15
ENDBRANCH   2  14
TORSDOF 15
