
     RDKit          2D

 22 23  0  0  0  0  0  0  0  0999 V2000
   -2.9958   -1.8167    0.0000 S   0  0  0  0  0  0  0  0  0  0  0  0
   -2.4083   -0.8417    0.0000 C   0  0  0  0  0  0  0  0  0  0  0  0
    2.1000    1.1208    0.0000 N   0  0  0  0  0  0  0  0  0  0  0  0
    0.9625    1.1208    0.0000 N   0  0  0  0  0  0  0  0  0  0  0  0
    0.4167    0.1333    0.0000 C   0  0  0  0  0  0  0  0  0  0  0  0
   -1.3000   -0.8417    0.0000 C   0  0  0  0  0  0  0  0  0  0  0  0
   -0.7208    0.1333    0.0000 C   0  0  0  0  0  0  0  0  0  0  0  0
   -2.9958    0.1333    0.0000 C   0  0  0  0  0  0  0  0  0  0  0  0
   -3.5458   -2.8375    0.0000 O   0  0  0  0  0  0  0  0  0  0  0  0
   -1.9833   -2.4042    0.0000 O   0  0  0  0  0  0  0  0  0  0  0  0
   -3.9708   -1.2667    0.0000 N   0  0  0  0  0  0  0  0  0  0  0  0
    2.6542    0.1333    0.0000 C   0  0  0  0  0  0  0  0  0  0  0  0
    2.6542    2.1000    0.0000 C   0  0  0  0  0  0  0  0  0  0  0  0
    0.9625   -0.8417    0.0000 O   0  0  0  0  0  0  0  0  0  0  0  0
   -1.3000    1.1208    0.0000 C   0  0  0  0  0  0  0  0  0  0  0  0
   -2.4083    1.1208    0.0000 C   0  0  0  0  0  0  0  0  0  0  0  0
   -4.1250    0.1333    0.0000 Cl  0  0  0  0  0  0  0  0  0  0  0  0
    4.3375    1.1208    0.0000 C   0  0  0  0  0  0  0  0  0  0  0  0
    3.7917    2.1000    0.0000 C   0  0  0  0  0  0  0  0  0  0  0  0
    3.7917    0.1333    0.0000 C   0  0  0  0  0  0  0  0  0  0  0  0
    2.1000    3.1208    0.0000 C   0  0  0  0  0  0  0  0  0  0  0  0
    2.1000   -0.8417    0.0000 C   0  0  0  0  0  0  0  0  0  0  0  0
  2  1  1  0
  3  4  1  0
  4  5  1  0
  5  7  1  0
  6  2  1  0
  7  6  2  0
  8  2  2  0
  9  1  2  0
 10  1  2  0
 11  1  1  0
 12  3  1  0
 13  3  1  0
 14  5  2  0
 15 16  2  0
 16  8  1  0
 17  8  1  0
 18 19  1  0
 19 13  1  0
 20 12  1  0
 21 13  1  0
 22 12  1  0
  7 15  1  0
 20 18  1  0
M  END


> <chembl_id>
CHEMBL1361347

> <chembl_pref_name>
CLOPAMIDE
