REMARK  Name = 
REMARK  1 active torsions:
REMARK  status: ('A' for Active; 'I' for Inactive)
REMARK    1  A    between atoms: N_3  and  N_8
REMARK                            x       y       z     vdW  Elec       q    Type
REMARK                         _______ _______ _______ _____ _____    ______ ____
ROOT
ATOM      1  C   UNL     1      -0.625   0.883   0.000  0.00  0.00    +0.000 C 
ATOM      2  C   UNL     1       0.617   0.133   0.000  0.00  0.00    +0.000 C 
ATOM      3  N   UNL     1       1.917   0.825   0.000  0.00  0.00    +0.000 NA
ATOM      4  C   UNL     1      -1.858   0.150   0.000  0.00  0.00    +0.000 A 
ATOM      5  C   UNL     1       0.617  -1.242   0.000  0.00  0.00    +0.000 C 
ATOM      6  C   UNL     1      -0.625  -1.979   0.000  0.00  0.00    +0.000 C 
ATOM      7  C   UNL     1      -1.858  -1.262   0.000  0.00  0.00    +0.000 A 
ATOM      8  O   UNL     1      -0.625   2.300   0.000  0.00  0.00    +0.000 OA
ATOM      9  C   UNL     1      -3.096   0.883   0.000  0.00  0.00    +0.000 A 
ATOM     10  C   UNL     1      -3.096  -1.979   0.000  0.00  0.00    +0.000 A 
ATOM     11  C   UNL     1      -4.346   0.133   0.000  0.00  0.00    +0.000 A 
ATOM     12  C   UNL     1      -4.346  -1.242   0.000  0.00  0.00    +0.000 A 
ENDROOT
BRANCH   3  14
ATOM     13  C   UNL     1       3.117  -1.392   0.000  0.00  0.00    +0.000 C 
ATOM     14  N   UNL     1       3.104   0.046   0.000  0.00  0.00    +0.000 NA
ATOM     15  O   UNL     1       1.967  -2.025   0.000  0.00  0.00    +0.000 OA
ATOM     16  N   UNL     1       4.188  -2.175   0.000  0.00  0.00    +0.000 NA
ENDBRANCH   3  14
TORSDOF 1
