REMARK  Name = 
REMARK  9 active torsions:
REMARK  status: ('A' for Active; 'I' for Inactive)
REMARK    1  A    between atoms: O_1  and  C_2
REMARK    2  A    between atoms: O_1  and  C_8
REMARK    3  A    between atoms: N_3  and  C_9
REMARK    4  A    between atoms: N_3  and  C_12
REMARK    5  A    between atoms: C_4  and  O_10
REMARK    6  A    between atoms: C_5  and  C_13
REMARK    7  A    between atoms: C_7  and  C_8
REMARK    8  A    between atoms: C_7  and  C_9
REMARK    9  A    between atoms: O_10  and  C_13
REMARK                            x       y       z     vdW  Elec       q    Type
REMARK                         _______ _______ _______ _____ _____    ______ ____
ROOT
ATOM      1  C   UNL     1       6.079  -6.079   0.000  0.00  0.00    +0.000 A 
ATOM      2  C   UNL     1       6.704  -5.729   0.000  0.00  0.00    +0.000 A 
ATOM      3  C   UNL     1       6.067  -6.792   0.000  0.00  0.00    +0.000 A 
ATOM      4  C   UNL     1       7.312  -6.104   0.000  0.00  0.00    +0.000 A 
ATOM      5  C   UNL     1       7.300  -6.812   0.000  0.00  0.00    +0.000 A 
ATOM      6  C   UNL     1       6.679  -7.154   0.000  0.00  0.00    +0.000 A 
ENDROOT
BRANCH   1   7
ATOM      7  O   UNL     1       5.463  -5.729   0.000  0.00  0.00    +0.000 OA
BRANCH   7   8
ATOM      8  C   UNL     1       4.854  -6.092   0.000  0.00  0.00    +0.000 C 
BRANCH   8   9
ATOM      9  C   UNL     1       4.237  -5.742   0.000  0.00  0.00    +0.000 C 
ATOM     10  O   UNL     1       4.229  -5.042   0.000  0.00  0.00    +0.000 OA
BRANCH   9  11
ATOM     11  C   UNL     1       3.625  -6.104   0.000  0.00  0.00    +0.000 C 
BRANCH  11  12
ATOM     12  N   UNL     1       3.004  -5.767   0.000  0.00  0.00    +0.000 NA
BRANCH  12  13
ATOM     13  C   UNL     1       2.392  -6.125   0.000  0.00  0.00    +0.000 C 
ATOM     14  C   UNL     1       1.767  -5.787   0.000  0.00  0.00    +0.000 C 
ATOM     15  C   UNL     1       2.392  -6.829   0.000  0.00  0.00    +0.000 C 
ENDBRANCH  12  13
ENDBRANCH  11  12
ENDBRANCH   9  11
ENDBRANCH   8   9
ENDBRANCH   7   8
ENDBRANCH   1   7
BRANCH   2  16
ATOM     16  O   UNL     1       6.717  -5.025   0.000  0.00  0.00    +0.000 OA
BRANCH  16  17
ATOM     17  C   UNL     1       6.104  -4.650   0.000  0.00  0.00    +0.000 C 
BRANCH  17  18
ATOM     18  C   UNL     1       5.479  -5.000   0.000  0.00  0.00    +0.000 C 
ATOM     19  C   UNL     1       4.867  -4.629   0.000  0.00  0.00    +0.000 C 
ENDBRANCH  17  18
ENDBRANCH  16  17
ENDBRANCH   2  16
TORSDOF 9
