MODEL 1
REMARK VINA RESULT:      -8.9      0.000      0.000
REMARK  Name = 
REMARK  8 active torsions:
REMARK  status: ('A' for Active; 'I' for Inactive)
REMARK    1  A    between atoms: O_3  and  C_23
REMARK    2  A    between atoms: O_3  and  C_26
REMARK    3  A    between atoms: N_6  and  C_14
REMARK    4  A    between atoms: N_7  and  C_22
REMARK    5  A    between atoms: N_7  and  C_24
REMARK    6  A    between atoms: N_7  and  C_25
REMARK    7  A    between atoms: C_12  and  C_19
REMARK    8  A    between atoms: C_19  and  C_22
REMARK                            x       y       z     vdW  Elec       q    Type
REMARK                         _______ _______ _______ _____ _____    ______ ____
ROOT
ATOM      1  S   UNL     1     106.621 142.242 160.156  0.00  0.00    +0.000 S 
ATOM      2  O   UNL     1     106.280 144.443 162.127  0.00  0.00    +0.000 OA
ATOM      3  N   UNL     1     106.281 143.656 160.934  0.00  0.00    +0.000 N 
ATOM      4  C   UNL     1     106.620 143.028 161.348  0.00  0.00    +0.000 A 
ATOM      5  C   UNL     1     106.112 143.576 160.131  0.00  0.00    +0.000 A 
ATOM      6  C   UNL     1     106.791 142.321 160.960  0.00  0.00    +0.000 A 
ATOM      7  C   UNL     1     106.282 142.870 159.742  0.00  0.00    +0.000 A 
ATOM      8  C   UNL     1     106.111 144.363 161.324  0.00  0.00    +0.000 C 
ATOM      9  C   UNL     1     106.790 143.108 162.153  0.00  0.00    +0.000 A 
ATOM     10  C   UNL     1     107.129 142.480 162.567  0.00  0.00    +0.000 A 
ATOM     11  C   UNL     1     107.130 141.694 161.374  0.00  0.00    +0.000 A 
ATOM     12  C   UNL     1     105.773 144.204 159.717  0.00  0.00    +0.000 A 
ATOM     13  C   UNL     1     106.113 142.789 158.938  0.00  0.00    +0.000 A 
ATOM     14  C   UNL     1     107.299 141.773 162.177  0.00  0.00    +0.000 A 
ATOM     15  C   UNL     1     105.604 144.125 158.913  0.00  0.00    +0.000 A 
ATOM     16  C   UNL     1     105.774 143.417 158.524  0.00  0.00    +0.000 A 
ENDROOT
BRANCH  10  18
ATOM     17  O   UNL     1     106.312 141.572 163.676  0.00  0.00    +0.000 OA
ATOM     18  N   UNL     1     107.298 142.560 163.370  0.00  0.00    +0.000 NA
ATOM     19  C   UNL     1     106.889 142.106 163.924  0.00  0.00    +0.000 C 
BRANCH  19  20
ATOM     20  O   UNL     1     107.058 142.186 164.729  0.00  0.00    +0.000 OA
BRANCH  20  21
ATOM     21  C   UNL     1     106.484 141.998 165.291  0.00  0.00    +0.000 C 
ATOM     22  C   UNL     1     106.683 141.976 166.091  0.00  0.00    +0.000 C 
ENDBRANCH  20  21
ENDBRANCH  19  20
ENDBRANCH  10  18
BRANCH   8  23
ATOM     23  C   UNL     1     105.772 144.991 160.909  0.00  0.00    +0.000 C 
BRANCH  23  24
ATOM     24  C   UNL     1     105.504 145.657 161.315  0.00  0.00    +0.000 C 
BRANCH  24  25
ATOM     25  N   UNL     1     105.319 146.346 160.901  0.00  0.00    +0.000 NA
BRANCH  25  26
ATOM     26  C   UNL     1     105.923 146.823 160.604  0.00  0.00    +0.000 C 
ATOM     27  C   UNL     1     105.744 147.562 160.282  0.00  0.00    +0.000 C 
ENDBRANCH  25  26
BRANCH  25  28
ATOM     28  C   UNL     1     104.531 146.557 160.785  0.00  0.00    +0.000 C 
ATOM     29  C   UNL     1     104.086 146.855 161.414  0.00  0.00    +0.000 C 
ENDBRANCH  25  28
ENDBRANCH  24  25
ENDBRANCH  23  24
ENDBRANCH   8  23
TORSDOF 8
ENDMDL
MODEL 2
REMARK VINA RESULT:      -8.6      3.573      5.198
REMARK  Name = 
REMARK  8 active torsions:
REMARK  status: ('A' for Active; 'I' for Inactive)
REMARK    1  A    between atoms: O_3  and  C_23
REMARK    2  A    between atoms: O_3  and  C_26
REMARK    3  A    between atoms: N_6  and  C_14
REMARK    4  A    between atoms: N_7  and  C_22
REMARK    5  A    between atoms: N_7  and  C_24
REMARK    6  A    between atoms: N_7  and  C_25
REMARK    7  A    between atoms: C_12  and  C_19
REMARK    8  A    between atoms: C_19  and  C_22
REMARK                            x       y       z     vdW  Elec       q    Type
REMARK                         _______ _______ _______ _____ _____    ______ ____
ROOT
ATOM      1  S   UNL     1     104.186 140.911 157.075  0.00  0.00    +0.000 S 
ATOM      2  O   UNL     1     105.320 143.656 156.925  0.00  0.00    +0.000 OA
ATOM      3  N   UNL     1     104.742 142.389 156.602  0.00  0.00    +0.000 N 
ATOM      4  C   UNL     1     104.763 142.176 157.399  0.00  0.00    +0.000 A 
ATOM      5  C   UNL     1     104.443 141.863 156.042  0.00  0.00    +0.000 A 
ATOM      6  C   UNL     1     104.484 141.437 157.636  0.00  0.00    +0.000 A 
ATOM      7  C   UNL     1     104.165 141.124 156.279  0.00  0.00    +0.000 A 
ATOM      8  C   UNL     1     105.021 143.129 156.366  0.00  0.00    +0.000 C 
ATOM      9  C   UNL     1     105.062 142.703 157.959  0.00  0.00    +0.000 A 
ATOM     10  C   UNL     1     105.082 142.491 158.756  0.00  0.00    +0.000 A 
ATOM     11  C   UNL     1     104.505 141.224 158.433  0.00  0.00    +0.000 A 
ATOM     12  C   UNL     1     104.423 142.076 155.245  0.00  0.00    +0.000 A 
ATOM     13  C   UNL     1     103.866 140.596 155.719  0.00  0.00    +0.000 A 
ATOM     14  C   UNL     1     104.804 141.751 158.992  0.00  0.00    +0.000 A 
ATOM     15  C   UNL     1     104.124 141.549 154.685  0.00  0.00    +0.000 A 
ATOM     16  C   UNL     1     103.845 140.809 154.922  0.00  0.00    +0.000 A 
ENDROOT
BRANCH  10  18
ATOM     17  O   UNL     1     106.334 142.036 159.730  0.00  0.00    +0.000 OA
ATOM     18  N   UNL     1     105.381 143.017 159.316  0.00  0.00    +0.000 NA
ATOM     19  C   UNL     1     106.007 142.790 159.803  0.00  0.00    +0.000 C 
BRANCH  19  20
ATOM     20  O   UNL     1     106.306 143.317 160.363  0.00  0.00    +0.000 OA
BRANCH  20  21
ATOM     21  C   UNL     1     106.675 143.030 161.044  0.00  0.00    +0.000 C 
ATOM     22  C   UNL     1     106.761 143.519 161.702  0.00  0.00    +0.000 C 
ENDBRANCH  20  21
ENDBRANCH  19  20
ENDBRANCH  10  18
BRANCH   8  23
ATOM     23  C   UNL     1     105.001 143.342 155.569  0.00  0.00    +0.000 C 
BRANCH  23  24
ATOM     24  C   UNL     1     105.404 144.014 155.310  0.00  0.00    +0.000 C 
BRANCH  24  25
ATOM     25  N   UNL     1     105.177 144.388 154.611  0.00  0.00    +0.000 NA
BRANCH  25  26
ATOM     26  C   UNL     1     104.496 144.855 154.596  0.00  0.00    +0.000 C 
ATOM     27  C   UNL     1     104.277 145.241 153.900  0.00  0.00    +0.000 C 
ENDBRANCH  25  26
BRANCH  25  28
ATOM     28  C   UNL     1     105.630 144.296 153.929  0.00  0.00    +0.000 C 
ATOM     29  C   UNL     1     106.328 144.725 153.836  0.00  0.00    +0.000 C 
ENDBRANCH  25  28
ENDBRANCH  24  25
ENDBRANCH  23  24
ENDBRANCH   8  23
TORSDOF 8
ENDMDL
MODEL 3
REMARK VINA RESULT:      -8.6     69.979     71.621
REMARK  Name = 
REMARK  8 active torsions:
REMARK  status: ('A' for Active; 'I' for Inactive)
REMARK    1  A    between atoms: O_3  and  C_23
REMARK    2  A    between atoms: O_3  and  C_26
REMARK    3  A    between atoms: N_6  and  C_14
REMARK    4  A    between atoms: N_7  and  C_22
REMARK    5  A    between atoms: N_7  and  C_24
REMARK    6  A    between atoms: N_7  and  C_25
REMARK    7  A    between atoms: C_12  and  C_19
REMARK    8  A    between atoms: C_19  and  C_22
REMARK                            x       y       z     vdW  Elec       q    Type
REMARK                         _______ _______ _______ _____ _____    ______ ____
ROOT
ATOM      1  S   UNL     1     149.387 142.521 102.686  0.00  0.00    +0.000 S 
ATOM      2  O   UNL     1     149.733 143.767 105.364  0.00  0.00    +0.000 OA
ATOM      3  N   UNL     1     149.181 143.177 104.185  0.00  0.00    +0.000 N 
ATOM      4  C   UNL     1     149.938 143.111 103.864  0.00  0.00    +0.000 A 
ATOM      5  C   UNL     1     148.527 142.915 103.757  0.00  0.00    +0.000 A 
ATOM      6  C   UNL     1     150.042 142.783 103.115  0.00  0.00    +0.000 A 
ATOM      7  C   UNL     1     148.630 142.587 103.007  0.00  0.00    +0.000 A 
ATOM      8  C   UNL     1     149.079 143.506 104.936  0.00  0.00    +0.000 C 
ATOM      9  C   UNL     1     150.593 143.373 104.293  0.00  0.00    +0.000 A 
ATOM     10  C   UNL     1     151.350 143.307 103.972  0.00  0.00    +0.000 A 
ATOM     11  C   UNL     1     150.799 142.717 102.794  0.00  0.00    +0.000 A 
ATOM     12  C   UNL     1     147.770 142.982 104.078  0.00  0.00    +0.000 A 
ATOM     13  C   UNL     1     147.976 142.325 102.578  0.00  0.00    +0.000 A 
ATOM     14  C   UNL     1     151.452 142.978 103.222  0.00  0.00    +0.000 A 
ATOM     15  C   UNL     1     147.116 142.720 103.650  0.00  0.00    +0.000 A 
ATOM     16  C   UNL     1     147.219 142.391 102.899  0.00  0.00    +0.000 A 
ENDROOT
BRANCH  10  18
ATOM     17  O   UNL     1     152.402 142.214 104.623  0.00  0.00    +0.000 OA
ATOM     18  N   UNL     1     152.004 143.569 104.401  0.00  0.00    +0.000 NA
ATOM     19  C   UNL     1     152.530 143.022 104.726  0.00  0.00    +0.000 C 
BRANCH  19  20
ATOM     20  O   UNL     1     153.184 143.284 105.156  0.00  0.00    +0.000 OA
BRANCH  20  21
ATOM     21  C   UNL     1     153.464 142.841 105.793  0.00  0.00    +0.000 C 
ATOM     22  C   UNL     1     154.075 143.134 106.262  0.00  0.00    +0.000 C 
ENDBRANCH  20  21
ENDBRANCH  19  20
ENDBRANCH  10  18
BRANCH   8  23
ATOM     23  C   UNL     1     148.322 143.572 105.257  0.00  0.00    +0.000 C 
BRANCH  23  24
ATOM     24  C   UNL     1     148.188 144.072 105.899  0.00  0.00    +0.000 C 
BRANCH  24  25
ATOM     25  N   UNL     1     147.566 143.919 106.419  0.00  0.00    +0.000 NA
BRANCH  25  26
ATOM     26  C   UNL     1     146.865 144.350 106.361  0.00  0.00    +0.000 C 
ATOM     27  C   UNL     1     146.862 145.157 106.532  0.00  0.00    +0.000 C 
ENDBRANCH  25  26
BRANCH  25  28
ATOM     28  C   UNL     1     147.647 143.335 106.996  0.00  0.00    +0.000 C 
ATOM     29  C   UNL     1     147.482 143.511 107.785  0.00  0.00    +0.000 C 
ENDBRANCH  25  28
ENDBRANCH  24  25
ENDBRANCH  23  24
ENDBRANCH   8  23
TORSDOF 8
ENDMDL
MODEL 4
REMARK VINA RESULT:      -8.5     55.661     57.413
REMARK  Name = 
REMARK  8 active torsions:
REMARK  status: ('A' for Active; 'I' for Inactive)
REMARK    1  A    between atoms: O_3  and  C_23
REMARK    2  A    between atoms: O_3  and  C_26
REMARK    3  A    between atoms: N_6  and  C_14
REMARK    4  A    between atoms: N_7  and  C_22
REMARK    5  A    between atoms: N_7  and  C_24
REMARK    6  A    between atoms: N_7  and  C_25
REMARK    7  A    between atoms: C_12  and  C_19
REMARK    8  A    between atoms: C_19  and  C_22
REMARK                            x       y       z     vdW  Elec       q    Type
REMARK                         _______ _______ _______ _____ _____    ______ ____
ROOT
ATOM      1  S   UNL     1     160.274 123.657 165.272  0.00  0.00    +0.000 S 
ATOM      2  O   UNL     1     158.703 121.271 164.444  0.00  0.00    +0.000 OA
ATOM      3  N   UNL     1     159.744 122.233 164.630  0.00  0.00    +0.000 N 
ATOM      4  C   UNL     1     159.234 122.695 165.086  0.00  0.00    +0.000 A 
ATOM      5  C   UNL     1     160.518 122.483 164.496  0.00  0.00    +0.000 A 
ATOM      6  C   UNL     1     159.499 123.407 165.407  0.00  0.00    +0.000 A 
ATOM      7  C   UNL     1     160.783 123.194 164.817  0.00  0.00    +0.000 A 
ATOM      8  C   UNL     1     159.477 121.521 164.310  0.00  0.00    +0.000 C 
ATOM      9  C   UNL     1     158.459 122.445 165.221  0.00  0.00    +0.000 A 
ATOM     10  C   UNL     1     157.950 122.908 165.676  0.00  0.00    +0.000 A 
ATOM     11  C   UNL     1     158.990 123.870 165.862  0.00  0.00    +0.000 A 
ATOM     12  C   UNL     1     161.027 122.020 164.041  0.00  0.00    +0.000 A 
ATOM     13  C   UNL     1     161.558 123.444 164.682  0.00  0.00    +0.000 A 
ATOM     14  C   UNL     1     158.216 123.620 165.997  0.00  0.00    +0.000 A 
ATOM     15  C   UNL     1     161.802 122.269 163.906  0.00  0.00    +0.000 A 
ATOM     16  C   UNL     1     162.067 122.982 164.227  0.00  0.00    +0.000 A 
ENDROOT
BRANCH  10  18
ATOM     17  O   UNL     1     156.694 123.950 165.436  0.00  0.00    +0.000 OA
ATOM     18  N   UNL     1     157.176 122.658 165.811  0.00  0.00    +0.000 NA
ATOM     19  C   UNL     1     156.548 123.179 165.690  0.00  0.00    +0.000 C 
BRANCH  19  20
ATOM     20  O   UNL     1     155.772 122.930 165.825  0.00  0.00    +0.000 OA
BRANCH  20  21
ATOM     21  C   UNL     1     155.141 123.433 165.655  0.00  0.00    +0.000 C 
ATOM     22  C   UNL     1     154.368 123.189 165.804  0.00  0.00    +0.000 C 
ENDBRANCH  20  21
ENDBRANCH  19  20
ENDBRANCH  10  18
BRANCH   8  23
ATOM     23  C   UNL     1     159.987 121.058 163.854  0.00  0.00    +0.000 C 
BRANCH  23  24
ATOM     24  C   UNL     1     159.693 120.413 163.433  0.00  0.00    +0.000 C 
BRANCH  24  25
ATOM     25  N   UNL     1     160.211 119.847 163.130  0.00  0.00    +0.000 NA
BRANCH  25  26
ATOM     26  C   UNL     1     160.527 119.268 163.626  0.00  0.00    +0.000 C 
ATOM     27  C   UNL     1     160.867 118.589 163.303  0.00  0.00    +0.000 C 
ENDBRANCH  25  26
BRANCH  25  28
ATOM     28  C   UNL     1     160.413 119.860 162.330  0.00  0.00    +0.000 C 
ATOM     29  C   UNL     1     159.913 119.516 161.773  0.00  0.00    +0.000 C 
ENDBRANCH  25  28
ENDBRANCH  24  25
ENDBRANCH  23  24
ENDBRANCH   8  23
TORSDOF 8
ENDMDL
MODEL 5
REMARK VINA RESULT:      -8.5     68.996     70.667
REMARK  Name = 
REMARK  8 active torsions:
REMARK  status: ('A' for Active; 'I' for Inactive)
REMARK    1  A    between atoms: O_3  and  C_23
REMARK    2  A    between atoms: O_3  and  C_26
REMARK    3  A    between atoms: N_6  and  C_14
REMARK    4  A    between atoms: N_7  and  C_22
REMARK    5  A    between atoms: N_7  and  C_24
REMARK    6  A    between atoms: N_7  and  C_25
REMARK    7  A    between atoms: C_12  and  C_19
REMARK    8  A    between atoms: C_19  and  C_22
REMARK                            x       y       z     vdW  Elec       q    Type
REMARK                         _______ _______ _______ _____ _____    ______ ____
ROOT
ATOM      1  S   UNL     1     146.566 143.273 105.172  0.00  0.00    +0.000 S 
ATOM      2  O   UNL     1     149.498 143.724 104.958  0.00  0.00    +0.000 OA
ATOM      3  N   UNL     1     148.144 143.349 104.697  0.00  0.00    +0.000 N 
ATOM      4  C   UNL     1     147.919 143.648 105.432  0.00  0.00    +0.000 A 
ATOM      5  C   UNL     1     147.579 143.012 104.199  0.00  0.00    +0.000 A 
ATOM      6  C   UNL     1     147.130 143.610 105.670  0.00  0.00    +0.000 A 
ATOM      7  C   UNL     1     146.791 142.974 104.436  0.00  0.00    +0.000 A 
ATOM      8  C   UNL     1     148.933 143.387 104.460  0.00  0.00    +0.000 C 
ATOM      9  C   UNL     1     148.484 143.985 105.931  0.00  0.00    +0.000 A 
ATOM     10  C   UNL     1     148.260 144.284 106.667  0.00  0.00    +0.000 A 
ATOM     11  C   UNL     1     146.906 143.909 106.406  0.00  0.00    +0.000 A 
ATOM     12  C   UNL     1     147.804 142.714 103.464  0.00  0.00    +0.000 A 
ATOM     13  C   UNL     1     146.225 142.637 103.938  0.00  0.00    +0.000 A 
ATOM     14  C   UNL     1     147.470 144.246 106.903  0.00  0.00    +0.000 A 
ATOM     15  C   UNL     1     147.240 142.377 102.965  0.00  0.00    +0.000 A 
ATOM     16  C   UNL     1     146.450 142.339 103.203  0.00  0.00    +0.000 A 
ENDROOT
BRANCH  10  18
ATOM     17  O   UNL     1     148.678 143.525 108.071  0.00  0.00    +0.000 OA
ATOM     18  N   UNL     1     148.824 144.621 107.164  0.00  0.00    +0.000 NA
ATOM     19  C   UNL     1     149.033 144.241 107.866  0.00  0.00    +0.000 C 
BRANCH  19  20
ATOM     20  O   UNL     1     149.599 144.578 108.365  0.00  0.00    +0.000 OA
BRANCH  20  21
ATOM     21  C   UNL     1     149.944 144.126 108.962  0.00  0.00    +0.000 C 
ATOM     22  C   UNL     1     150.526 144.455 109.445  0.00  0.00    +0.000 C 
ENDBRANCH  20  21
ENDBRANCH  19  20
ENDBRANCH  10  18
BRANCH   8  23
ATOM     23  C   UNL     1     149.158 143.089 103.725  0.00  0.00    +0.000 C 
BRANCH  23  24
ATOM     24  C   UNL     1     149.957 143.023 103.533  0.00  0.00    +0.000 C 
BRANCH  24  25
ATOM     25  N   UNL     1     150.208 143.157 102.758  0.00  0.00    +0.000 NA
BRANCH  25  26
ATOM     26  C   UNL     1     150.408 142.520 102.274  0.00  0.00    +0.000 C 
ATOM     27  C   UNL     1     151.187 142.249 102.249  0.00  0.00    +0.000 C 
ENDBRANCH  25  26
BRANCH  25  28
ATOM     28  C   UNL     1     150.259 143.927 102.469  0.00  0.00    +0.000 C 
ATOM     29  C   UNL     1     150.347 144.059 101.660  0.00  0.00    +0.000 C 
ENDBRANCH  25  28
ENDBRANCH  24  25
ENDBRANCH  23  24
ENDBRANCH   8  23
TORSDOF 8
ENDMDL
MODEL 6
REMARK VINA RESULT:      -8.5      2.663      4.152
REMARK  Name = 
REMARK  8 active torsions:
REMARK  status: ('A' for Active; 'I' for Inactive)
REMARK    1  A    between atoms: O_3  and  C_23
REMARK    2  A    between atoms: O_3  and  C_26
REMARK    3  A    between atoms: N_6  and  C_14
REMARK    4  A    between atoms: N_7  and  C_22
REMARK    5  A    between atoms: N_7  and  C_24
REMARK    6  A    between atoms: N_7  and  C_25
REMARK    7  A    between atoms: C_12  and  C_19
REMARK    8  A    between atoms: C_19  and  C_22
REMARK                            x       y       z     vdW  Elec       q    Type
REMARK                         _______ _______ _______ _____ _____    ______ ____
ROOT
ATOM      1  S   UNL     1     106.291 143.041 160.563  0.00  0.00    +0.000 S 
ATOM      2  O   UNL     1     105.206 140.970 158.725  0.00  0.00    +0.000 OA
ATOM      3  N   UNL     1     105.612 142.208 159.311  0.00  0.00    +0.000 N 
ATOM      4  C   UNL     1     105.884 141.803 159.977  0.00  0.00    +0.000 A 
ATOM      5  C   UNL     1     105.680 143.029 159.272  0.00  0.00    +0.000 A 
ATOM      6  C   UNL     1     106.224 142.219 160.603  0.00  0.00    +0.000 A 
ATOM      7  C   UNL     1     106.019 143.445 159.897  0.00  0.00    +0.000 A 
ATOM      8  C   UNL     1     105.273 141.791 158.686  0.00  0.00    +0.000 C 
ATOM      9  C   UNL     1     105.817 140.981 160.017  0.00  0.00    +0.000 A 
ATOM     10  C   UNL     1     106.089 140.577 160.682  0.00  0.00    +0.000 A 
ATOM     11  C   UNL     1     106.496 141.815 161.268  0.00  0.00    +0.000 A 
ATOM     12  C   UNL     1     105.407 143.433 158.607  0.00  0.00    +0.000 A 
ATOM     13  C   UNL     1     106.086 144.267 159.858  0.00  0.00    +0.000 A 
ATOM     14  C   UNL     1     106.429 140.994 161.308  0.00  0.00    +0.000 A 
ATOM     15  C   UNL     1     105.474 144.254 158.566  0.00  0.00    +0.000 A 
ATOM     16  C   UNL     1     105.814 144.671 159.193  0.00  0.00    +0.000 A 
ENDROOT
BRANCH  10  18
ATOM     17  O   UNL     1     105.118 139.883 161.821  0.00  0.00    +0.000 OA
ATOM     18  N   UNL     1     106.022 139.756 160.721  0.00  0.00    +0.000 NA
ATOM     19  C   UNL     1     105.537 139.409 161.291  0.00  0.00    +0.000 C 
BRANCH  19  20
ATOM     20  O   UNL     1     105.469 138.587 161.331  0.00  0.00    +0.000 OA
BRANCH  20  21
ATOM     21  C   UNL     1     104.835 138.244 161.731  0.00  0.00    +0.000 C 
ATOM     22  C   UNL     1     104.617 137.466 161.569  0.00  0.00    +0.000 C 
ENDBRANCH  20  21
ENDBRANCH  19  20
ENDBRANCH  10  18
BRANCH   8  23
ATOM     23  C   UNL     1     105.001 142.195 158.020  0.00  0.00    +0.000 C 
BRANCH  23  24
ATOM     24  C   UNL     1     104.556 141.799 157.449  0.00  0.00    +0.000 C 
BRANCH  24  25
ATOM     25  N   UNL     1     104.562 142.061 156.667  0.00  0.00    +0.000 NA
BRANCH  25  26
ATOM     26  C   UNL     1     105.099 141.741 156.129  0.00  0.00    +0.000 C 
ATOM     27  C   UNL     1     104.877 141.105 155.653  0.00  0.00    +0.000 C 
ENDBRANCH  25  26
BRANCH  25  28
ATOM     28  C   UNL     1     104.030 142.642 156.423  0.00  0.00    +0.000 C 
ATOM     29  C   UNL     1     103.989 142.855 155.627  0.00  0.00    +0.000 C 
ENDBRANCH  25  28
ENDBRANCH  24  25
ENDBRANCH  23  24
ENDBRANCH   8  23
TORSDOF 8
ENDMDL
MODEL 7
REMARK VINA RESULT:      -8.5     35.096     37.202
REMARK  Name = 
REMARK  8 active torsions:
REMARK  status: ('A' for Active; 'I' for Inactive)
REMARK    1  A    between atoms: O_3  and  C_23
REMARK    2  A    between atoms: O_3  and  C_26
REMARK    3  A    between atoms: N_6  and  C_14
REMARK    4  A    between atoms: N_7  and  C_22
REMARK    5  A    between atoms: N_7  and  C_24
REMARK    6  A    between atoms: N_7  and  C_25
REMARK    7  A    between atoms: C_12  and  C_19
REMARK    8  A    between atoms: C_19  and  C_22
REMARK                            x       y       z     vdW  Elec       q    Type
REMARK                         _______ _______ _______ _____ _____    ______ ____
ROOT
ATOM      1  S   UNL     1     135.653 119.048 163.630  0.00  0.00    +0.000 S 
ATOM      2  O   UNL     1     135.035 121.707 164.811  0.00  0.00    +0.000 OA
ATOM      3  N   UNL     1     135.502 120.372 164.602  0.00  0.00    +0.000 N 
ATOM      4  C   UNL     1     135.187 120.382 163.840  0.00  0.00    +0.000 A 
ATOM      5  C   UNL     1     135.892 119.700 164.878  0.00  0.00    +0.000 A 
ATOM      6  C   UNL     1     135.262 119.720 163.353  0.00  0.00    +0.000 A 
ATOM      7  C   UNL     1     135.968 119.038 164.393  0.00  0.00    +0.000 A 
ATOM      8  C   UNL     1     135.426 121.035 165.088  0.00  0.00    +0.000 C 
ATOM      9  C   UNL     1     134.796 121.054 163.563  0.00  0.00    +0.000 A 
ATOM     10  C   UNL     1     134.481 121.064 162.800  0.00  0.00    +0.000 A 
ATOM     11  C   UNL     1     134.947 119.730 162.591  0.00  0.00    +0.000 A 
ATOM     12  C   UNL     1     136.207 119.691 165.641  0.00  0.00    +0.000 A 
ATOM     13  C   UNL     1     136.358 118.366 164.669  0.00  0.00    +0.000 A 
ATOM     14  C   UNL     1     134.557 120.401 162.314  0.00  0.00    +0.000 A 
ATOM     15  C   UNL     1     136.597 119.019 165.918  0.00  0.00    +0.000 A 
ATOM     16  C   UNL     1     136.673 118.356 165.431  0.00  0.00    +0.000 A 
ENDROOT
BRANCH  10  18
ATOM     17  O   UNL     1     132.888 120.978 162.381  0.00  0.00    +0.000 OA
ATOM     18  N   UNL     1     134.091 121.736 162.524  0.00  0.00    +0.000 NA
ATOM     19  C   UNL     1     133.294 121.693 162.314  0.00  0.00    +0.000 C 
BRANCH  19  20
ATOM     20  O   UNL     1     132.903 122.365 162.038  0.00  0.00    +0.000 OA
BRANCH  20  21
ATOM     21  C   UNL     1     132.098 122.332 161.864  0.00  0.00    +0.000 C 
ATOM     22  C   UNL     1     131.696 123.016 161.640  0.00  0.00    +0.000 C 
ENDBRANCH  20  21
ENDBRANCH  19  20
ENDBRANCH  10  18
BRANCH   8  23
ATOM     23  C   UNL     1     135.740 121.025 165.850  0.00  0.00    +0.000 C 
BRANCH  23  24
ATOM     24  C   UNL     1     135.836 121.731 166.266  0.00  0.00    +0.000 C 
BRANCH  24  25
ATOM     25  N   UNL     1     135.835 121.727 167.091  0.00  0.00    +0.000 NA
BRANCH  25  26
ATOM     26  C   UNL     1     135.125 121.632 167.502  0.00  0.00    +0.000 C 
ATOM     27  C   UNL     1     135.125 121.620 168.327  0.00  0.00    +0.000 C 
ENDBRANCH  25  26
BRANCH  25  28
ATOM     28  C   UNL     1     136.542 121.819 167.505  0.00  0.00    +0.000 C 
ATOM     29  C   UNL     1     136.883 122.567 167.578  0.00  0.00    +0.000 C 
ENDBRANCH  25  28
ENDBRANCH  24  25
ENDBRANCH  23  24
ENDBRANCH   8  23
TORSDOF 8
ENDMDL
MODEL 8
REMARK VINA RESULT:      -8.3      4.505      7.182
REMARK  Name = 
REMARK  8 active torsions:
REMARK  status: ('A' for Active; 'I' for Inactive)
REMARK    1  A    between atoms: O_3  and  C_23
REMARK    2  A    between atoms: O_3  and  C_26
REMARK    3  A    between atoms: N_6  and  C_14
REMARK    4  A    between atoms: N_7  and  C_22
REMARK    5  A    between atoms: N_7  and  C_24
REMARK    6  A    between atoms: N_7  and  C_25
REMARK    7  A    between atoms: C_12  and  C_19
REMARK    8  A    between atoms: C_19  and  C_22
REMARK                            x       y       z     vdW  Elec       q    Type
REMARK                         _______ _______ _______ _____ _____    ______ ____
ROOT
ATOM      1  S   UNL     1     104.264 141.596 155.187  0.00  0.00    +0.000 S 
ATOM      2  O   UNL     1     105.653 143.936 156.388  0.00  0.00    +0.000 OA
ATOM      3  N   UNL     1     104.930 142.718 156.196  0.00  0.00    +0.000 N 
ATOM      4  C   UNL     1     104.987 142.813 155.379  0.00  0.00    +0.000 A 
ATOM      5  C   UNL     1     104.539 142.063 156.509  0.00  0.00    +0.000 A 
ATOM      6  C   UNL     1     104.654 142.252 154.874  0.00  0.00    +0.000 A 
ATOM      7  C   UNL     1     104.207 141.502 156.005  0.00  0.00    +0.000 A 
ATOM      8  C   UNL     1     105.263 143.280 156.700  0.00  0.00    +0.000 C 
ATOM      9  C   UNL     1     105.378 143.469 155.065  0.00  0.00    +0.000 A 
ATOM     10  C   UNL     1     105.436 143.563 154.248  0.00  0.00    +0.000 A 
ATOM     11  C   UNL     1     104.712 142.346 154.056  0.00  0.00    +0.000 A 
ATOM     12  C   UNL     1     104.482 141.969 157.326  0.00  0.00    +0.000 A 
ATOM     13  C   UNL     1     103.816 140.846 156.317  0.00  0.00    +0.000 A 
ATOM     14  C   UNL     1     105.102 143.002 153.743  0.00  0.00    +0.000 A 
ATOM     15  C   UNL     1     104.092 141.313 157.640  0.00  0.00    +0.000 A 
ATOM     16  C   UNL     1     103.758 140.751 157.135  0.00  0.00    +0.000 A 
ENDROOT
BRANCH  10  18
ATOM     17  O   UNL     1     104.584 144.719 153.434  0.00  0.00    +0.000 OA
ATOM     18  N   UNL     1     105.826 144.219 153.935  0.00  0.00    +0.000 NA
ATOM     19  C   UNL     1     105.400 144.797 153.528  0.00  0.00    +0.000 C 
BRANCH  19  20
ATOM     20  O   UNL     1     105.791 145.453 153.215  0.00  0.00    +0.000 OA
BRANCH  20  21
ATOM     21  C   UNL     1     105.361 146.047 152.835  0.00  0.00    +0.000 C 
ATOM     22  C   UNL     1     105.756 146.674 152.474  0.00  0.00    +0.000 C 
ENDBRANCH  20  21
ENDBRANCH  19  20
ENDBRANCH  10  18
BRANCH   8  23
ATOM     23  C   UNL     1     105.206 143.186 157.518  0.00  0.00    +0.000 C 
BRANCH  23  24
ATOM     24  C   UNL     1     105.504 143.766 158.022  0.00  0.00    +0.000 C 
BRANCH  24  25
ATOM     25  N   UNL     1     105.526 143.634 158.836  0.00  0.00    +0.000 NA
BRANCH  25  26
ATOM     26  C   UNL     1     106.126 143.170 159.162  0.00  0.00    +0.000 C 
ATOM     27  C   UNL     1     106.252 143.172 159.978  0.00  0.00    +0.000 C 
ENDBRANCH  25  26
BRANCH  25  28
ATOM     28  C   UNL     1     104.950 143.965 159.324  0.00  0.00    +0.000 C 
ATOM     29  C   UNL     1     105.009 144.755 159.553  0.00  0.00    +0.000 C 
ENDBRANCH  25  28
ENDBRANCH  24  25
ENDBRANCH  23  24
ENDBRANCH   8  23
TORSDOF 8
ENDMDL
MODEL 9
REMARK VINA RESULT:      -8.2      2.045      2.760
REMARK  Name = 
REMARK  8 active torsions:
REMARK  status: ('A' for Active; 'I' for Inactive)
REMARK    1  A    between atoms: O_3  and  C_23
REMARK    2  A    between atoms: O_3  and  C_26
REMARK    3  A    between atoms: N_6  and  C_14
REMARK    4  A    between atoms: N_7  and  C_22
REMARK    5  A    between atoms: N_7  and  C_24
REMARK    6  A    between atoms: N_7  and  C_25
REMARK    7  A    between atoms: C_12  and  C_19
REMARK    8  A    between atoms: C_19  and  C_22
REMARK                            x       y       z     vdW  Elec       q    Type
REMARK                         _______ _______ _______ _____ _____    ______ ____
ROOT
ATOM      1  S   UNL     1     104.960 141.402 158.541  0.00  0.00    +0.000 S 
ATOM      2  O   UNL     1     106.052 143.992 159.512  0.00  0.00    +0.000 OA
ATOM      3  N   UNL     1     105.447 142.967 158.721  0.00  0.00    +0.000 N 
ATOM      4  C   UNL     1     105.565 142.426 159.332  0.00  0.00    +0.000 A 
ATOM      5  C   UNL     1     105.086 142.726 158.020  0.00  0.00    +0.000 A 
ATOM      6  C   UNL     1     105.322 141.643 159.243  0.00  0.00    +0.000 A 
ATOM      7  C   UNL     1     104.843 141.943 157.930  0.00  0.00    +0.000 A 
ATOM      8  C   UNL     1     105.691 143.751 158.811  0.00  0.00    +0.000 C 
ATOM      9  C   UNL     1     105.927 142.668 160.034  0.00  0.00    +0.000 A 
ATOM     10  C   UNL     1     106.045 142.127 160.645  0.00  0.00    +0.000 A 
ATOM     11  C   UNL     1     105.439 141.102 159.854  0.00  0.00    +0.000 A 
ATOM     12  C   UNL     1     104.968 143.267 157.409  0.00  0.00    +0.000 A 
ATOM     13  C   UNL     1     104.481 141.701 157.229  0.00  0.00    +0.000 A 
ATOM     14  C   UNL     1     105.801 141.343 160.555  0.00  0.00    +0.000 A 
ATOM     15  C   UNL     1     104.607 143.026 156.708  0.00  0.00    +0.000 A 
ATOM     16  C   UNL     1     104.363 142.242 156.618  0.00  0.00    +0.000 A 
ENDROOT
BRANCH  10  18
ATOM     17  O   UNL     1     107.436 141.398 161.150  0.00  0.00    +0.000 OA
ATOM     18  N   UNL     1     106.406 142.368 161.346  0.00  0.00    +0.000 NA
ATOM     19  C   UNL     1     107.101 142.004 161.598  0.00  0.00    +0.000 C 
BRANCH  19  20
ATOM     20  O   UNL     1     107.463 142.246 162.299  0.00  0.00    +0.000 OA
BRANCH  20  21
ATOM     21  C   UNL     1     107.941 141.720 162.720  0.00  0.00    +0.000 C 
ATOM     22  C   UNL     1     108.183 141.906 163.486  0.00  0.00    +0.000 C 
ENDBRANCH  20  21
ENDBRANCH  19  20
ENDBRANCH  10  18
BRANCH   8  23
ATOM     23  C   UNL     1     105.573 144.292 158.200  0.00  0.00    +0.000 C 
BRANCH  23  24
ATOM     24  C   UNL     1     105.681 145.098 158.336  0.00  0.00    +0.000 C 
BRANCH  24  25
ATOM     25  N   UNL     1     105.773 145.616 157.700  0.00  0.00    +0.000 NA
BRANCH  25  26
ATOM     26  C   UNL     1     106.489 145.641 157.289  0.00  0.00    +0.000 C 
ATOM     27  C   UNL     1     106.612 146.217 156.712  0.00  0.00    +0.000 C 
ENDBRANCH  25  26
BRANCH  25  28
ATOM     28  C   UNL     1     105.151 146.107 157.475  0.00  0.00    +0.000 C 
ATOM     29  C   UNL     1     104.967 146.773 157.927  0.00  0.00    +0.000 C 
ENDBRANCH  25  28
ENDBRANCH  24  25
ENDBRANCH  23  24
ENDBRANCH   8  23
TORSDOF 8
ENDMDL
MODEL 10
REMARK VINA RESULT:      -8.2      2.193      4.360
REMARK  Name = 
REMARK  8 active torsions:
REMARK  status: ('A' for Active; 'I' for Inactive)
REMARK    1  A    between atoms: O_3  and  C_23
REMARK    2  A    between atoms: O_3  and  C_26
REMARK    3  A    between atoms: N_6  and  C_14
REMARK    4  A    between atoms: N_7  and  C_22
REMARK    5  A    between atoms: N_7  and  C_24
REMARK    6  A    between atoms: N_7  and  C_25
REMARK    7  A    between atoms: C_12  and  C_19
REMARK    8  A    between atoms: C_19  and  C_22
REMARK                            x       y       z     vdW  Elec       q    Type
REMARK                         _______ _______ _______ _____ _____    ______ ____
ROOT
ATOM      1  S   UNL     1     106.696 142.919 161.444  0.00  0.00    +0.000 S 
ATOM      2  O   UNL     1     105.140 144.029 159.165  0.00  0.00    +0.000 OA
ATOM      3  N   UNL     1     105.872 143.164 160.036  0.00  0.00    +0.000 N 
ATOM      4  C   UNL     1     105.964 143.784 160.573  0.00  0.00    +0.000 A 
ATOM      5  C   UNL     1     106.191 142.423 160.203  0.00  0.00    +0.000 A 
ATOM      6  C   UNL     1     106.376 143.662 161.277  0.00  0.00    +0.000 A 
ATOM      7  C   UNL     1     106.603 142.300 160.907  0.00  0.00    +0.000 A 
ATOM      8  C   UNL     1     105.459 143.288 159.332  0.00  0.00    +0.000 C 
ATOM      9  C   UNL     1     105.645 144.526 160.406  0.00  0.00    +0.000 A 
ATOM     10  C   UNL     1     105.737 145.146 160.943  0.00  0.00    +0.000 A 
ATOM     11  C   UNL     1     106.469 144.281 161.814  0.00  0.00    +0.000 A 
ATOM     12  C   UNL     1     106.098 141.803 159.666  0.00  0.00    +0.000 A 
ATOM     13  C   UNL     1     106.923 141.558 161.074  0.00  0.00    +0.000 A 
ATOM     14  C   UNL     1     106.150 145.022 161.647  0.00  0.00    +0.000 A 
ATOM     15  C   UNL     1     106.418 141.061 159.833  0.00  0.00    +0.000 A 
ATOM     16  C   UNL     1     106.830 140.939 160.537  0.00  0.00    +0.000 A 
ENDROOT
BRANCH  10  18
ATOM     17  O   UNL     1     104.530 145.756 161.889  0.00  0.00    +0.000 OA
ATOM     18  N   UNL     1     105.418 145.887 160.776  0.00  0.00    +0.000 NA
ATOM     19  C   UNL     1     104.815 146.192 161.249  0.00  0.00    +0.000 C 
BRANCH  19  20
ATOM     20  O   UNL     1     104.494 146.935 161.082  0.00  0.00    +0.000 OA
BRANCH  20  21
ATOM     21  C   UNL     1     103.834 147.203 161.498  0.00  0.00    +0.000 C 
ATOM     22  C   UNL     1     103.532 147.955 161.351  0.00  0.00    +0.000 C 
ENDBRANCH  20  21
ENDBRANCH  19  20
ENDBRANCH  10  18
BRANCH   8  23
ATOM     23  C   UNL     1     105.367 142.668 158.795  0.00  0.00    +0.000 C 
BRANCH  23  24
ATOM     24  C   UNL     1     104.979 142.797 158.079  0.00  0.00    +0.000 C 
BRANCH  24  25
ATOM     25  N   UNL     1     104.821 142.164 157.575  0.00  0.00    +0.000 NA
BRANCH  25  26
ATOM     26  C   UNL     1     105.242 142.083 156.869  0.00  0.00    +0.000 C 
ATOM     27  C   UNL     1     105.039 142.542 156.214  0.00  0.00    +0.000 C 
ENDBRANCH  25  26
BRANCH  25  28
ATOM     28  C   UNL     1     104.242 141.612 157.775  0.00  0.00    +0.000 C 
ATOM     29  C   UNL     1     103.865 141.177 157.185  0.00  0.00    +0.000 C 
ENDBRANCH  25  28
ENDBRANCH  24  25
ENDBRANCH  23  24
ENDBRANCH   8  23
TORSDOF 8
ENDMDL
MODEL 11
REMARK VINA RESULT:      -8.1     68.784     70.438
REMARK  Name = 
REMARK  8 active torsions:
REMARK  status: ('A' for Active; 'I' for Inactive)
REMARK    1  A    between atoms: O_3  and  C_23
REMARK    2  A    between atoms: O_3  and  C_26
REMARK    3  A    between atoms: N_6  and  C_14
REMARK    4  A    between atoms: N_7  and  C_22
REMARK    5  A    between atoms: N_7  and  C_24
REMARK    6  A    between atoms: N_7  and  C_25
REMARK    7  A    between atoms: C_12  and  C_19
REMARK    8  A    between atoms: C_19  and  C_22
REMARK                            x       y       z     vdW  Elec       q    Type
REMARK                         _______ _______ _______ _____ _____    ______ ____
ROOT
ATOM      1  S   UNL     1     147.535 143.175 104.474  0.00  0.00    +0.000 S 
ATOM      2  O   UNL     1     149.773 144.091 106.204  0.00  0.00    +0.000 OA
ATOM      3  N   UNL     1     149.000 143.558 105.126  0.00  0.00    +0.000 N 
ATOM      4  C   UNL     1     148.308 143.707 105.550  0.00  0.00    +0.000 A 
ATOM      5  C   UNL     1     148.959 143.218 104.377  0.00  0.00    +0.000 A 
ATOM      6  C   UNL     1     147.575 143.515 105.224  0.00  0.00    +0.000 A 
ATOM      7  C   UNL     1     148.227 143.026 104.050  0.00  0.00    +0.000 A 
ATOM      8  C   UNL     1     149.733 143.750 105.454  0.00  0.00    +0.000 C 
ATOM      9  C   UNL     1     148.348 144.048 106.301  0.00  0.00    +0.000 A 
ATOM     10  C   UNL     1     147.656 144.196 106.725  0.00  0.00    +0.000 A 
ATOM     11  C   UNL     1     146.883 143.664 105.648  0.00  0.00    +0.000 A 
ATOM     12  C   UNL     1     149.651 143.069 103.953  0.00  0.00    +0.000 A 
ATOM     13  C   UNL     1     148.185 142.685 103.300  0.00  0.00    +0.000 A 
ATOM     14  C   UNL     1     146.923 144.004 106.397  0.00  0.00    +0.000 A 
ATOM     15  C   UNL     1     149.611 142.729 103.203  0.00  0.00    +0.000 A 
ATOM     16  C   UNL     1     148.878 142.537 102.876  0.00  0.00    +0.000 A 
ENDROOT
BRANCH  10  18
ATOM     17  O   UNL     1     147.367 143.277 108.064  0.00  0.00    +0.000 OA
ATOM     18  N   UNL     1     147.697 144.537 107.474  0.00  0.00    +0.000 NA
ATOM     19  C   UNL     1     147.553 144.077 108.144  0.00  0.00    +0.000 C 
BRANCH  19  20
ATOM     20  O   UNL     1     147.593 144.418 108.895  0.00  0.00    +0.000 OA
BRANCH  20  21
ATOM     21  C   UNL     1     147.734 143.944 109.556  0.00  0.00    +0.000 C 
ATOM     22  C   UNL     1     147.779 144.285 110.305  0.00  0.00    +0.000 C 
ENDBRANCH  20  21
ENDBRANCH  19  20
ENDBRANCH  10  18
BRANCH   8  23
ATOM     23  C   UNL     1     150.425 143.602 105.030  0.00  0.00    +0.000 C 
BRANCH  23  24
ATOM     24  C   UNL     1     151.141 143.924 105.283  0.00  0.00    +0.000 C 
BRANCH  24  25
ATOM     25  N   UNL     1     151.852 143.559 105.081  0.00  0.00    +0.000 NA
BRANCH  25  26
ATOM     26  C   UNL     1     152.047 142.827 105.408  0.00  0.00    +0.000 C 
ATOM     27  C   UNL     1     152.831 142.569 105.404  0.00  0.00    +0.000 C 
ENDBRANCH  25  26
BRANCH  25  28
ATOM     28  C   UNL     1     152.368 143.925 104.552  0.00  0.00    +0.000 C 
ATOM     29  C   UNL     1     152.785 144.598 104.783  0.00  0.00    +0.000 C 
ENDBRANCH  25  28
ENDBRANCH  24  25
ENDBRANCH  23  24
ENDBRANCH   8  23
TORSDOF 8
ENDMDL
MODEL 12
REMARK VINA RESULT:      -8.0     35.043     37.659
REMARK  Name = 
REMARK  8 active torsions:
REMARK  status: ('A' for Active; 'I' for Inactive)
REMARK    1  A    between atoms: O_3  and  C_23
REMARK    2  A    between atoms: O_3  and  C_26
REMARK    3  A    between atoms: N_6  and  C_14
REMARK    4  A    between atoms: N_7  and  C_22
REMARK    5  A    between atoms: N_7  and  C_24
REMARK    6  A    between atoms: N_7  and  C_25
REMARK    7  A    between atoms: C_12  and  C_19
REMARK    8  A    between atoms: C_19  and  C_22
REMARK                            x       y       z     vdW  Elec       q    Type
REMARK                         _______ _______ _______ _____ _____    ______ ____
ROOT
ATOM      1  S   UNL     1     133.776 151.994 185.896  0.00  0.00    +0.000 S 
ATOM      2  O   UNL     1     133.092 149.265 186.859  0.00  0.00    +0.000 OA
ATOM      3  N   UNL     1     133.033 150.576 186.294  0.00  0.00    +0.000 N 
ATOM      4  C   UNL     1     133.834 150.684 186.462  0.00  0.00    +0.000 A 
ATOM      5  C   UNL     1     132.605 151.177 185.927  0.00  0.00    +0.000 A 
ATOM      6  C   UNL     1     134.205 151.393 186.263  0.00  0.00    +0.000 A 
ATOM      7  C   UNL     1     132.975 151.886 185.728  0.00  0.00    +0.000 A 
ATOM      8  C   UNL     1     132.663 149.866 186.493  0.00  0.00    +0.000 C 
ATOM      9  C   UNL     1     134.264 150.082 186.829  0.00  0.00    +0.000 A 
ATOM     10  C   UNL     1     135.064 150.191 186.997  0.00  0.00    +0.000 A 
ATOM     11  C   UNL     1     135.006 151.501 186.432  0.00  0.00    +0.000 A 
ATOM     12  C   UNL     1     131.804 151.069 185.759  0.00  0.00    +0.000 A 
ATOM     13  C   UNL     1     132.546 152.488 185.361  0.00  0.00    +0.000 A 
ATOM     14  C   UNL     1     135.435 150.900 186.798  0.00  0.00    +0.000 A 
ATOM     15  C   UNL     1     131.374 151.670 185.392  0.00  0.00    +0.000 A 
ATOM     16  C   UNL     1     131.746 152.380 185.193  0.00  0.00    +0.000 A 
ENDROOT
BRANCH  10  18
ATOM     17  O   UNL     1     135.625 150.398 188.535  0.00  0.00    +0.000 OA
ATOM     18  N   UNL     1     135.493 149.590 187.364  0.00  0.00    +0.000 NA
ATOM     19  C   UNL     1     135.774 149.693 188.133  0.00  0.00    +0.000 C 
BRANCH  19  20
ATOM     20  O   UNL     1     136.203 149.092 188.500  0.00  0.00    +0.000 OA
BRANCH  20  21
ATOM     21  C   UNL     1     136.553 149.224 189.236  0.00  0.00    +0.000 C 
ATOM     22  C   UNL     1     136.978 148.622 189.604  0.00  0.00    +0.000 C 
ENDBRANCH  20  21
ENDBRANCH  19  20
ENDBRANCH  10  18
BRANCH   8  23
ATOM     23  C   UNL     1     131.863 149.758 186.325  0.00  0.00    +0.000 C 
BRANCH  23  24
ATOM     24  C   UNL     1     131.497 149.039 186.498  0.00  0.00    +0.000 C 
BRANCH  24  25
ATOM     25  N   UNL     1     130.695 148.934 186.339  0.00  0.00    +0.000 NA
BRANCH  25  26
ATOM     26  C   UNL     1     130.129 149.208 186.874  0.00  0.00    +0.000 C 
ATOM     27  C   UNL     1     129.701 148.672 187.332  0.00  0.00    +0.000 C 
ENDBRANCH  25  26
BRANCH  25  28
ATOM     28  C   UNL     1     130.458 148.556 185.646  0.00  0.00    +0.000 C 
ATOM     29  C   UNL     1     130.454 147.732 185.607  0.00  0.00    +0.000 C 
ENDBRANCH  25  28
ENDBRANCH  24  25
ENDBRANCH  23  24
ENDBRANCH   8  23
TORSDOF 8
ENDMDL
MODEL 13
REMARK VINA RESULT:      -7.9      4.644      6.217
REMARK  Name = 
REMARK  8 active torsions:
REMARK  status: ('A' for Active; 'I' for Inactive)
REMARK    1  A    between atoms: O_3  and  C_23
REMARK    2  A    between atoms: O_3  and  C_26
REMARK    3  A    between atoms: N_6  and  C_14
REMARK    4  A    between atoms: N_7  and  C_22
REMARK    5  A    between atoms: N_7  and  C_24
REMARK    6  A    between atoms: N_7  and  C_25
REMARK    7  A    between atoms: C_12  and  C_19
REMARK    8  A    between atoms: C_19  and  C_22
REMARK                            x       y       z     vdW  Elec       q    Type
REMARK                         _______ _______ _______ _____ _____    ______ ____
ROOT
ATOM      1  S   UNL     1     104.054 141.612 154.406  0.00  0.00    +0.000 S 
ATOM      2  O   UNL     1     103.960 143.828 156.386  0.00  0.00    +0.000 OA
ATOM      3  N   UNL     1     103.979 143.068 155.176  0.00  0.00    +0.000 N 
ATOM      4  C   UNL     1     104.035 142.372 155.615  0.00  0.00    +0.000 A 
ATOM      5  C   UNL     1     103.961 143.036 154.353  0.00  0.00    +0.000 A 
ATOM      6  C   UNL     1     104.073 141.643 155.230  0.00  0.00    +0.000 A 
ATOM      7  C   UNL     1     103.999 142.308 153.967  0.00  0.00    +0.000 A 
ATOM      8  C   UNL     1     103.942 143.796 155.563  0.00  0.00    +0.000 C 
ATOM      9  C   UNL     1     104.053 142.403 156.440  0.00  0.00    +0.000 A 
ATOM     10  C   UNL     1     104.109 141.707 156.879  0.00  0.00    +0.000 A 
ATOM     11  C   UNL     1     104.128 140.947 155.669  0.00  0.00    +0.000 A 
ATOM     12  C   UNL     1     103.906 143.733 153.914  0.00  0.00    +0.000 A 
ATOM     13  C   UNL     1     103.980 142.276 153.143  0.00  0.00    +0.000 A 
ATOM     14  C   UNL     1     104.146 140.979 156.492  0.00  0.00    +0.000 A 
ATOM     15  C   UNL     1     103.887 143.701 153.090  0.00  0.00    +0.000 A 
ATOM     16  C   UNL     1     103.925 142.972 152.704  0.00  0.00    +0.000 A 
ENDROOT
BRANCH  10  18
ATOM     17  O   UNL     1     105.496 141.330 157.688  0.00  0.00    +0.000 OA
ATOM     18  N   UNL     1     104.127 141.739 157.702  0.00  0.00    +0.000 NA
ATOM     19  C   UNL     1     104.821 141.551 158.107  0.00  0.00    +0.000 C 
BRANCH  19  20
ATOM     20  O   UNL     1     104.839 141.583 158.932  0.00  0.00    +0.000 OA
BRANCH  20  21
ATOM     21  C   UNL     1     105.554 141.488 159.332  0.00  0.00    +0.000 C 
ATOM     22  C   UNL     1     105.570 141.505 160.156  0.00  0.00    +0.000 C 
ENDBRANCH  20  21
ENDBRANCH  19  20
ENDBRANCH  10  18
BRANCH   8  23
ATOM     23  C   UNL     1     103.886 144.493 155.124  0.00  0.00    +0.000 C 
BRANCH  23  24
ATOM     24  C   UNL     1     103.665 145.197 155.493  0.00  0.00    +0.000 C 
BRANCH  24  25
ATOM     25  N   UNL     1     103.873 145.922 155.158  0.00  0.00    +0.000 NA
BRANCH  25  26
ATOM     26  C   UNL     1     103.295 146.393 154.806  0.00  0.00    +0.000 C 
ATOM     27  C   UNL     1     102.687 146.712 155.264  0.00  0.00    +0.000 C 
ENDBRANCH  25  26
BRANCH  25  28
ATOM     28  C   UNL     1     104.658 146.174 155.176  0.00  0.00    +0.000 C 
ATOM     29  C   UNL     1     104.842 146.960 155.007  0.00  0.00    +0.000 C 
ENDBRANCH  25  28
ENDBRANCH  24  25
ENDBRANCH  23  24
ENDBRANCH   8  23
TORSDOF 8
ENDMDL
MODEL 14
REMARK VINA RESULT:      -7.9     68.959     70.601
REMARK  Name = 
REMARK  8 active torsions:
REMARK  status: ('A' for Active; 'I' for Inactive)
REMARK    1  A    between atoms: O_3  and  C_23
REMARK    2  A    between atoms: O_3  and  C_26
REMARK    3  A    between atoms: N_6  and  C_14
REMARK    4  A    between atoms: N_7  and  C_22
REMARK    5  A    between atoms: N_7  and  C_24
REMARK    6  A    between atoms: N_7  and  C_25
REMARK    7  A    between atoms: C_12  and  C_19
REMARK    8  A    between atoms: C_19  and  C_22
REMARK                            x       y       z     vdW  Elec       q    Type
REMARK                         _______ _______ _______ _____ _____    ______ ____
ROOT
ATOM      1  S   UNL     1     149.339 143.171 104.465  0.00  0.00    +0.000 S 
ATOM      2  O   UNL     1     150.378 142.366 107.132  0.00  0.00    +0.000 OA
ATOM      3  N   UNL     1     149.533 142.769 106.052  0.00  0.00    +0.000 N 
ATOM      4  C   UNL     1     150.183 142.769 105.544  0.00  0.00    +0.000 A 
ATOM      5  C   UNL     1     148.787 142.970 105.767  0.00  0.00    +0.000 A 
ATOM      6  C   UNL     1     150.086 142.970 104.750  0.00  0.00    +0.000 A 
ATOM      7  C   UNL     1     148.689 143.171 104.973  0.00  0.00    +0.000 A 
ATOM      8  C   UNL     1     149.632 142.567 106.846  0.00  0.00    +0.000 C 
ATOM      9  C   UNL     1     150.931 142.567 105.830  0.00  0.00    +0.000 A 
ATOM     10  C   UNL     1     151.581 142.567 105.321  0.00  0.00    +0.000 A 
ATOM     11  C   UNL     1     150.736 142.970 104.241  0.00  0.00    +0.000 A 
ATOM     12  C   UNL     1     148.137 142.970 106.275  0.00  0.00    +0.000 A 
ATOM     13  C   UNL     1     147.942 143.373 104.687  0.00  0.00    +0.000 A 
ATOM     14  C   UNL     1     151.482 142.769 104.527  0.00  0.00    +0.000 A 
ATOM     15  C   UNL     1     147.389 143.171 105.990  0.00  0.00    +0.000 A 
ATOM     16  C   UNL     1     147.292 143.373 105.195  0.00  0.00    +0.000 A 
ENDROOT
BRANCH  10  18
ATOM     17  O   UNL     1     152.795 143.685 105.315  0.00  0.00    +0.000 OA
ATOM     18  N   UNL     1     152.327 142.366 105.607  0.00  0.00    +0.000 NA
ATOM     19  C   UNL     1     152.934 142.925 105.603  0.00  0.00    +0.000 C 
BRANCH  19  20
ATOM     20  O   UNL     1     153.682 142.724 105.889  0.00  0.00    +0.000 OA
BRANCH  20  21
ATOM     21  C   UNL     1     154.196 143.313 106.153  0.00  0.00    +0.000 C 
ATOM     22  C   UNL     1     154.903 143.108 106.523  0.00  0.00    +0.000 C 
ENDBRANCH  20  21
ENDBRANCH  19  20
ENDBRANCH  10  18
BRANCH   8  23
ATOM     23  C   UNL     1     148.982 142.567 107.355  0.00  0.00    +0.000 C 
BRANCH  23  24
ATOM     24  C   UNL     1     149.096 142.609 108.171  0.00  0.00    +0.000 C 
BRANCH  24  25
ATOM     25  N   UNL     1     148.531 142.295 108.683  0.00  0.00    +0.000 NA
BRANCH  25  26
ATOM     26  C   UNL     1     148.410 141.480 108.714  0.00  0.00    +0.000 C 
ATOM     27  C   UNL     1     147.916 141.158 109.291  0.00  0.00    +0.000 C 
ENDBRANCH  25  26
BRANCH  25  28
ATOM     28  C   UNL     1     148.087 142.797 109.164  0.00  0.00    +0.000 C 
ATOM     29  C   UNL     1     148.455 143.218 109.771  0.00  0.00    +0.000 C 
ENDBRANCH  25  28
ENDBRANCH  24  25
ENDBRANCH  23  24
ENDBRANCH   8  23
TORSDOF 8
ENDMDL
MODEL 15
REMARK VINA RESULT:      -7.9     73.840     75.876
REMARK  Name = 
REMARK  8 active torsions:
REMARK  status: ('A' for Active; 'I' for Inactive)
REMARK    1  A    between atoms: O_3  and  C_23
REMARK    2  A    between atoms: O_3  and  C_26
REMARK    3  A    between atoms: N_6  and  C_14
REMARK    4  A    between atoms: N_7  and  C_22
REMARK    5  A    between atoms: N_7  and  C_24
REMARK    6  A    between atoms: N_7  and  C_25
REMARK    7  A    between atoms: C_12  and  C_19
REMARK    8  A    between atoms: C_19  and  C_22
REMARK                            x       y       z     vdW  Elec       q    Type
REMARK                         _______ _______ _______ _____ _____    ______ ____
ROOT
ATOM      1  S   UNL     1     137.599 149.637  90.850  0.00  0.00    +0.000 S 
ATOM      2  O   UNL     1     136.277 150.550  93.352  0.00  0.00    +0.000 OA
ATOM      3  N   UNL     1     137.145 149.917  92.410  0.00  0.00    +0.000 N 
ATOM      4  C   UNL     1     136.731 150.270  91.790  0.00  0.00    +0.000 A 
ATOM      5  C   UNL     1     137.786 149.424  92.250  0.00  0.00    +0.000 A 
ATOM      6  C   UNL     1     136.958 150.130  91.010  0.00  0.00    +0.000 A 
ATOM      7  C   UNL     1     138.013 149.284  91.470  0.00  0.00    +0.000 A 
ATOM      8  C   UNL     1     136.917 150.058  93.191  0.00  0.00    +0.000 C 
ATOM      9  C   UNL     1     136.089 150.764  91.951  0.00  0.00    +0.000 A 
ATOM     10  C   UNL     1     135.675 151.117  91.331  0.00  0.00    +0.000 A 
ATOM     11  C   UNL     1     136.543 150.484  90.390  0.00  0.00    +0.000 A 
ATOM     12  C   UNL     1     138.200 149.071  92.870  0.00  0.00    +0.000 A 
ATOM     13  C   UNL     1     138.655 148.791  91.308  0.00  0.00    +0.000 A 
ATOM     14  C   UNL     1     135.903 150.977  90.551  0.00  0.00    +0.000 A 
ATOM     15  C   UNL     1     138.842 148.578  92.710  0.00  0.00    +0.000 A 
ATOM     16  C   UNL     1     139.069 148.437  91.928  0.00  0.00    +0.000 A 
ENDROOT
BRANCH  10  18
ATOM     17  O   UNL     1     135.759 152.725  90.969  0.00  0.00    +0.000 OA
ATOM     18  N   UNL     1     135.034 151.610  91.492  0.00  0.00    +0.000 NA
ATOM     19  C   UNL     1     135.076 152.414  91.311  0.00  0.00    +0.000 C 
BRANCH  19  20
ATOM     20  O   UNL     1     134.434 152.908  91.472  0.00  0.00    +0.000 OA
BRANCH  20  21
ATOM     21  C   UNL     1     134.481 153.713  91.300  0.00  0.00    +0.000 C 
ATOM     22  C   UNL     1     133.844 154.208  91.471  0.00  0.00    +0.000 C 
ENDBRANCH  20  21
ENDBRANCH  19  20
ENDBRANCH  10  18
BRANCH   8  23
ATOM     23  C   UNL     1     137.332 149.704  93.811  0.00  0.00    +0.000 C 
BRANCH  23  24
ATOM     24  C   UNL     1     137.015 149.706  94.573  0.00  0.00    +0.000 C 
BRANCH  24  25
ATOM     25  N   UNL     1     137.509 149.600  95.225  0.00  0.00    +0.000 NA
BRANCH  25  26
ATOM     26  C   UNL     1     138.001 150.215  95.474  0.00  0.00    +0.000 C 
ATOM     27  C   UNL     1     138.372 150.174  96.209  0.00  0.00    +0.000 C 
ENDBRANCH  25  26
BRANCH  25  28
ATOM     28  C   UNL     1     137.511 148.881  95.628  0.00  0.00    +0.000 C 
ATOM     29  C   UNL     1     136.881 148.684  96.122  0.00  0.00    +0.000 C 
ENDBRANCH  25  28
ENDBRANCH  24  25
ENDBRANCH  23  24
ENDBRANCH   8  23
TORSDOF 8
ENDMDL
MODEL 16
REMARK VINA RESULT:      -7.8     31.926     33.863
REMARK  Name = 
REMARK  8 active torsions:
REMARK  status: ('A' for Active; 'I' for Inactive)
REMARK    1  A    between atoms: O_3  and  C_23
REMARK    2  A    between atoms: O_3  and  C_26
REMARK    3  A    between atoms: N_6  and  C_14
REMARK    4  A    between atoms: N_7  and  C_22
REMARK    5  A    between atoms: N_7  and  C_24
REMARK    6  A    between atoms: N_7  and  C_25
REMARK    7  A    between atoms: C_12  and  C_19
REMARK    8  A    between atoms: C_19  and  C_22
REMARK                            x       y       z     vdW  Elec       q    Type
REMARK                         _______ _______ _______ _____ _____    ______ ____
ROOT
ATOM      1  S   UNL     1     120.376 132.413 132.557  0.00  0.00    +0.000 S 
ATOM      2  O   UNL     1     118.982 129.964 133.507  0.00  0.00    +0.000 OA
ATOM      3  N   UNL     1     119.488 131.031 132.702  0.00  0.00    +0.000 N 
ATOM      4  C   UNL     1     119.870 131.347 133.361  0.00  0.00    +0.000 A 
ATOM      5  C   UNL     1     119.550 131.406 131.971  0.00  0.00    +0.000 A 
ATOM      6  C   UNL     1     120.314 132.038 133.289  0.00  0.00    +0.000 A 
ATOM      7  C   UNL     1     119.993 132.097 131.898  0.00  0.00    +0.000 A 
ATOM      8  C   UNL     1     119.044 130.339 132.775  0.00  0.00    +0.000 C 
ATOM      9  C   UNL     1     119.808 130.971 134.094  0.00  0.00    +0.000 A 
ATOM     10  C   UNL     1     120.191 131.287 134.753  0.00  0.00    +0.000 A 
ATOM     11  C   UNL     1     120.696 132.354 133.949  0.00  0.00    +0.000 A 
ATOM     12  C   UNL     1     119.167 131.090 131.311  0.00  0.00    +0.000 A 
ATOM     13  C   UNL     1     120.055 132.473 131.166  0.00  0.00    +0.000 A 
ATOM     14  C   UNL     1     120.635 131.978 134.680  0.00  0.00    +0.000 A 
ATOM     15  C   UNL     1     119.229 131.465 130.579  0.00  0.00    +0.000 A 
ATOM     16  C   UNL     1     119.673 132.157 130.507  0.00  0.00    +0.000 A 
ENDROOT
BRANCH  10  18
ATOM     17  O   UNL     1     119.563 132.098 136.046  0.00  0.00    +0.000 OA
ATOM     18  N   UNL     1     120.129 130.911 135.484  0.00  0.00    +0.000 NA
ATOM     19  C   UNL     1     119.815 131.317 136.131  0.00  0.00    +0.000 C 
BRANCH  19  20
ATOM     20  O   UNL     1     119.753 130.941 136.864  0.00  0.00    +0.000 OA
BRANCH  20  21
ATOM     21  C   UNL     1     119.189 131.194 137.410  0.00  0.00    +0.000 C 
ATOM     22  C   UNL     1     119.089 130.784 138.119  0.00  0.00    +0.000 C 
ENDBRANCH  20  21
ENDBRANCH  19  20
ENDBRANCH  10  18
BRANCH   8  23
ATOM     23  C   UNL     1     118.661 130.023 132.116  0.00  0.00    +0.000 C 
BRANCH  23  24
ATOM     24  C   UNL     1     118.095 129.431 132.211  0.00  0.00    +0.000 C 
BRANCH  24  25
ATOM     25  N   UNL     1     117.924 128.919 131.588  0.00  0.00    +0.000 NA
BRANCH  25  26
ATOM     26  C   UNL     1     118.474 128.347 131.361  0.00  0.00    +0.000 C 
ATOM     27  C   UNL     1     118.276 127.789 130.787  0.00  0.00    +0.000 C 
ENDBRANCH  25  26
BRANCH  25  28
ATOM     28  C   UNL     1     117.204 128.979 131.191  0.00  0.00    +0.000 C 
ATOM     29  C   UNL     1     116.509 128.723 131.556  0.00  0.00    +0.000 C 
ENDBRANCH  25  28
ENDBRANCH  24  25
ENDBRANCH  23  24
ENDBRANCH   8  23
TORSDOF 8
ENDMDL
MODEL 17
REMARK VINA RESULT:      -7.8     50.964     52.270
REMARK  Name = 
REMARK  8 active torsions:
REMARK  status: ('A' for Active; 'I' for Inactive)
REMARK    1  A    between atoms: O_3  and  C_23
REMARK    2  A    between atoms: O_3  and  C_26
REMARK    3  A    between atoms: N_6  and  C_14
REMARK    4  A    between atoms: N_7  and  C_22
REMARK    5  A    between atoms: N_7  and  C_24
REMARK    6  A    between atoms: N_7  and  C_25
REMARK    7  A    between atoms: C_12  and  C_19
REMARK    8  A    between atoms: C_19  and  C_22
REMARK                            x       y       z     vdW  Elec       q    Type
REMARK                         _______ _______ _______ _____ _____    ______ ____
ROOT
ATOM      1  S   UNL     1     147.363 129.562 133.945  0.00  0.00    +0.000 S 
ATOM      2  O   UNL     1     147.323 131.060 131.376  0.00  0.00    +0.000 OA
ATOM      3  N   UNL     1     147.725 130.285 132.508  0.00  0.00    +0.000 N 
ATOM      4  C   UNL     1     146.961 130.336 132.814  0.00  0.00    +0.000 A 
ATOM      5  C   UNL     1     148.308 129.873 132.920  0.00  0.00    +0.000 A 
ATOM      6  C   UNL     1     146.779 129.974 133.533  0.00  0.00    +0.000 A 
ATOM      7  C   UNL     1     148.127 129.511 133.638  0.00  0.00    +0.000 A 
ATOM      8  C   UNL     1     147.906 130.647 131.788  0.00  0.00    +0.000 C 
ATOM      9  C   UNL     1     146.377 130.748 132.401  0.00  0.00    +0.000 A 
ATOM     10  C   UNL     1     145.613 130.799 132.708  0.00  0.00    +0.000 A 
ATOM     11  C   UNL     1     146.015 130.024 133.839  0.00  0.00    +0.000 A 
ATOM     12  C   UNL     1     149.072 129.823 132.614  0.00  0.00    +0.000 A 
ATOM     13  C   UNL     1     148.710 129.098 134.052  0.00  0.00    +0.000 A 
ATOM     14  C   UNL     1     145.432 130.436 133.427  0.00  0.00    +0.000 A 
ATOM     15  C   UNL     1     149.656 129.410 133.026  0.00  0.00    +0.000 A 
ATOM     16  C   UNL     1     149.475 129.048 133.745  0.00  0.00    +0.000 A 
ENDROOT
BRANCH  10  18
ATOM     17  O   UNL     1     144.820 132.052 133.431  0.00  0.00    +0.000 OA
ATOM     18  N   UNL     1     145.030 131.211 132.295  0.00  0.00    +0.000 NA
ATOM     19  C   UNL     1     144.633 131.837 132.657  0.00  0.00    +0.000 C 
BRANCH  19  20
ATOM     20  O   UNL     1     144.050 132.250 132.244  0.00  0.00    +0.000 OA
BRANCH  20  21
ATOM     21  C   UNL     1     143.797 132.988 132.514  0.00  0.00    +0.000 C 
ATOM     22  C   UNL     1     143.213 133.399 132.103  0.00  0.00    +0.000 C 
ENDBRANCH  20  21
ENDBRANCH  19  20
ENDBRANCH  10  18
BRANCH   8  23
ATOM     23  C   UNL     1     148.670 130.597 131.482  0.00  0.00    +0.000 C 
BRANCH  23  24
ATOM     24  C   UNL     1     148.816 130.812 130.700  0.00  0.00    +0.000 C 
BRANCH  24  25
ATOM     25  N   UNL     1     149.549 131.126 130.488  0.00  0.00    +0.000 NA
BRANCH  25  26
ATOM     26  C   UNL     1     149.719 131.919 130.644  0.00  0.00    +0.000 C 
ATOM     27  C   UNL     1     150.447 132.236 130.422  0.00  0.00    +0.000 C 
ENDBRANCH  25  26
BRANCH  25  28
ATOM     28  C   UNL     1     150.111 130.649 130.120  0.00  0.00    +0.000 C 
ATOM     29  C   UNL     1     150.067 130.511 129.307  0.00  0.00    +0.000 C 
ENDBRANCH  25  28
ENDBRANCH  24  25
ENDBRANCH  23  24
ENDBRANCH   8  23
TORSDOF 8
ENDMDL
MODEL 18
REMARK VINA RESULT:      -7.6     57.494     59.197
REMARK  Name = 
REMARK  8 active torsions:
REMARK  status: ('A' for Active; 'I' for Inactive)
REMARK    1  A    between atoms: O_3  and  C_23
REMARK    2  A    between atoms: O_3  and  C_26
REMARK    3  A    between atoms: N_6  and  C_14
REMARK    4  A    between atoms: N_7  and  C_22
REMARK    5  A    between atoms: N_7  and  C_24
REMARK    6  A    between atoms: N_7  and  C_25
REMARK    7  A    between atoms: C_12  and  C_19
REMARK    8  A    between atoms: C_19  and  C_22
REMARK                            x       y       z     vdW  Elec       q    Type
REMARK                         _______ _______ _______ _____ _____    ______ ____
ROOT
ATOM      1  S   UNL     1     159.156 121.932 166.920  0.00  0.00    +0.000 S 
ATOM      2  O   UNL     1     161.297 120.593 165.351  0.00  0.00    +0.000 OA
ATOM      3  N   UNL     1     160.073 121.207 165.757  0.00  0.00    +0.000 N 
ATOM      4  C   UNL     1     160.380 121.319 166.514  0.00  0.00    +0.000 A 
ATOM      5  C   UNL     1     159.307 121.458 165.582  0.00  0.00    +0.000 A 
ATOM      6  C   UNL     1     159.922 121.682 167.097  0.00  0.00    +0.000 A 
ATOM      7  C   UNL     1     158.849 121.820 166.163  0.00  0.00    +0.000 A 
ATOM      8  C   UNL     1     160.532 120.844 165.176  0.00  0.00    +0.000 C 
ATOM      9  C   UNL     1     161.147 121.068 166.690  0.00  0.00    +0.000 A 
ATOM     10  C   UNL     1     161.454 121.180 167.448  0.00  0.00    +0.000 A 
ATOM     11  C   UNL     1     160.229 121.794 167.854  0.00  0.00    +0.000 A 
ATOM     12  C   UNL     1     159.000 121.346 164.824  0.00  0.00    +0.000 A 
ATOM     13  C   UNL     1     158.082 122.071 165.988  0.00  0.00    +0.000 A 
ATOM     14  C   UNL     1     160.995 121.543 168.029  0.00  0.00    +0.000 A 
ATOM     15  C   UNL     1     158.234 121.596 164.648  0.00  0.00    +0.000 A 
ATOM     16  C   UNL     1     157.775 121.959 165.231  0.00  0.00    +0.000 A 
ENDROOT
BRANCH  10  18
ATOM     17  O   UNL     1     161.702 120.046 168.620  0.00  0.00    +0.000 OA
ATOM     18  N   UNL     1     162.220 120.930 167.623  0.00  0.00    +0.000 NA
ATOM     19  C   UNL     1     162.344 120.362 168.209  0.00  0.00    +0.000 C 
BRANCH  19  20
ATOM     20  O   UNL     1     163.110 120.111 168.385  0.00  0.00    +0.000 OA
BRANCH  20  21
ATOM     21  C   UNL     1     163.228 119.458 168.875  0.00  0.00    +0.000 C 
ATOM     22  C   UNL     1     163.993 119.195 169.034  0.00  0.00    +0.000 C 
ENDBRANCH  20  21
ENDBRANCH  19  20
ENDBRANCH  10  18
BRANCH   8  23
ATOM     23  C   UNL     1     160.225 120.732 164.418  0.00  0.00    +0.000 C 
BRANCH  23  24
ATOM     24  C   UNL     1     160.573 120.186 163.908  0.00  0.00    +0.000 C 
BRANCH  24  25
ATOM     25  N   UNL     1     160.542 120.305 163.092  0.00  0.00    +0.000 NA
BRANCH  25  26
ATOM     26  C   UNL     1     161.041 120.858 162.737  0.00  0.00    +0.000 C 
ATOM     27  C   UNL     1     161.195 120.814 161.928  0.00  0.00    +0.000 C 
ENDBRANCH  25  26
BRANCH  25  28
ATOM     28  C   UNL     1     160.013 119.871 162.632  0.00  0.00    +0.000 C 
ATOM     29  C   UNL     1     160.133 119.063 162.518  0.00  0.00    +0.000 C 
ENDBRANCH  25  28
ENDBRANCH  24  25
ENDBRANCH  23  24
ENDBRANCH   8  23
TORSDOF 8
ENDMDL
MODEL 19
REMARK VINA RESULT:      -7.6     66.560     68.193
REMARK  Name = 
REMARK  8 active torsions:
REMARK  status: ('A' for Active; 'I' for Inactive)
REMARK    1  A    between atoms: O_3  and  C_23
REMARK    2  A    between atoms: O_3  and  C_26
REMARK    3  A    between atoms: N_6  and  C_14
REMARK    4  A    between atoms: N_7  and  C_22
REMARK    5  A    between atoms: N_7  and  C_24
REMARK    6  A    between atoms: N_7  and  C_25
REMARK    7  A    between atoms: C_12  and  C_19
REMARK    8  A    between atoms: C_19  and  C_22
REMARK                            x       y       z     vdW  Elec       q    Type
REMARK                         _______ _______ _______ _____ _____    ______ ____
ROOT
ATOM      1  S   UNL     1     148.026 141.840 109.416  0.00  0.00    +0.000 S 
ATOM      2  O   UNL     1     150.373 143.602 108.935  0.00  0.00    +0.000 OA
ATOM      3  N   UNL     1     149.248 142.942 109.520  0.00  0.00    +0.000 N 
ATOM      4  C   UNL     1     149.150 142.499 108.831  0.00  0.00    +0.000 A 
ATOM      5  C   UNL     1     148.735 142.835 110.156  0.00  0.00    +0.000 A 
ATOM      6  C   UNL     1     148.539 141.947 108.779  0.00  0.00    +0.000 A 
ATOM      7  C   UNL     1     148.124 142.284 110.105  0.00  0.00    +0.000 A 
ATOM      8  C   UNL     1     149.860 143.494 109.571  0.00  0.00    +0.000 C 
ATOM      9  C   UNL     1     149.664 142.607 108.194  0.00  0.00    +0.000 A 
ATOM     10  C   UNL     1     149.566 142.163 107.505  0.00  0.00    +0.000 A 
ATOM     11  C   UNL     1     148.441 141.504 108.090  0.00  0.00    +0.000 A 
ATOM     12  C   UNL     1     148.833 143.278 110.845  0.00  0.00    +0.000 A 
ATOM     13  C   UNL     1     147.610 142.175 110.741  0.00  0.00    +0.000 A 
ATOM     14  C   UNL     1     148.954 141.612 107.454  0.00  0.00    +0.000 A 
ATOM     15  C   UNL     1     148.320 143.171 111.482  0.00  0.00    +0.000 A 
ATOM     16  C   UNL     1     147.708 142.619 111.430  0.00  0.00    +0.000 A 
ENDROOT
BRANCH  10  18
ATOM     17  O   UNL     1     148.977 142.656 106.045  0.00  0.00    +0.000 OA
ATOM     18  N   UNL     1     150.079 142.271 106.869  0.00  0.00    +0.000 NA
ATOM     19  C   UNL     1     149.784 142.518 106.139  0.00  0.00    +0.000 C 
BRANCH  19  20
ATOM     20  O   UNL     1     150.298 142.626 105.502  0.00  0.00    +0.000 OA
BRANCH  20  21
ATOM     21  C   UNL     1     150.001 142.852 104.766  0.00  0.00    +0.000 C 
ATOM     22  C   UNL     1     150.513 142.949 104.127  0.00  0.00    +0.000 C 
ENDBRANCH  20  21
ENDBRANCH  19  20
ENDBRANCH  10  18
BRANCH   8  23
ATOM     23  C   UNL     1     149.958 143.937 110.260  0.00  0.00    +0.000 C 
BRANCH  23  24
ATOM     24  C   UNL     1     150.648 144.375 110.375  0.00  0.00    +0.000 C 
BRANCH  24  25
ATOM     25  N   UNL     1     150.653 145.006 110.906  0.00  0.00    +0.000 NA
BRANCH  25  26
ATOM     26  C   UNL     1     150.272 145.711 110.712  0.00  0.00    +0.000 C 
ATOM     27  C   UNL     1     150.328 146.362 111.215  0.00  0.00    +0.000 C 
ENDBRANCH  25  26
BRANCH  25  28
ATOM     28  C   UNL     1     151.040 144.931 111.630  0.00  0.00    +0.000 C 
ATOM     29  C   UNL     1     151.865 144.929 111.659  0.00  0.00    +0.000 C 
ENDBRANCH  25  28
ENDBRANCH  24  25
ENDBRANCH  23  24
ENDBRANCH   8  23
TORSDOF 8
ENDMDL
MODEL 20
REMARK VINA RESULT:      -7.6     80.095     82.127
REMARK  Name = 
REMARK  8 active torsions:
REMARK  status: ('A' for Active; 'I' for Inactive)
REMARK    1  A    between atoms: O_3  and  C_23
REMARK    2  A    between atoms: O_3  and  C_26
REMARK    3  A    between atoms: N_6  and  C_14
REMARK    4  A    between atoms: N_7  and  C_22
REMARK    5  A    between atoms: N_7  and  C_24
REMARK    6  A    between atoms: N_7  and  C_25
REMARK    7  A    between atoms: C_12  and  C_19
REMARK    8  A    between atoms: C_19  and  C_22
REMARK                            x       y       z     vdW  Elec       q    Type
REMARK                         _______ _______ _______ _____ _____    ______ ____
ROOT
ATOM      1  S   UNL     1     135.611 155.458  84.209  0.00  0.00    +0.000 S 
ATOM      2  O   UNL     1     136.716 154.455  86.781  0.00  0.00    +0.000 OA
ATOM      3  N   UNL     1     135.846 154.789  85.698  0.00  0.00    +0.000 N 
ATOM      4  C   UNL     1     136.480 155.125  85.292  0.00  0.00    +0.000 A 
ATOM      5  C   UNL     1     135.094 154.787  85.359  0.00  0.00    +0.000 A 
ATOM      6  C   UNL     1     136.363 155.460  84.547  0.00  0.00    +0.000 A 
ATOM      7  C   UNL     1     134.976 155.122  84.615  0.00  0.00    +0.000 A 
ATOM      8  C   UNL     1     135.964 154.454  86.443  0.00  0.00    +0.000 C 
ATOM      9  C   UNL     1     137.233 155.127  85.631  0.00  0.00    +0.000 A 
ATOM     10  C   UNL     1     137.868 155.463  85.225  0.00  0.00    +0.000 A 
ATOM     11  C   UNL     1     136.998 155.796  84.141  0.00  0.00    +0.000 A 
ATOM     12  C   UNL     1     134.460 154.451  85.766  0.00  0.00    +0.000 A 
ATOM     13  C   UNL     1     134.224 155.121  84.276  0.00  0.00    +0.000 A 
ATOM     14  C   UNL     1     137.749 155.798  84.480  0.00  0.00    +0.000 A 
ATOM     15  C   UNL     1     133.707 154.449  85.427  0.00  0.00    +0.000 A 
ATOM     16  C   UNL     1     133.590 154.784  84.682  0.00  0.00    +0.000 A 
ENDROOT
BRANCH  10  18
ATOM     17  O   UNL     1     138.543 156.882  85.728  0.00  0.00    +0.000 OA
ATOM     18  N   UNL     1     138.620 155.464  85.563  0.00  0.00    +0.000 NA
ATOM     19  C   UNL     1     138.957 156.174  85.815  0.00  0.00    +0.000 C 
BRANCH  19  20
ATOM     20  O   UNL     1     139.710 156.176  86.154  0.00  0.00    +0.000 OA
BRANCH  20  21
ATOM     21  C   UNL     1     139.996 156.858  86.520  0.00  0.00    +0.000 C 
ATOM     22  C   UNL     1     140.750 156.861  86.853  0.00  0.00    +0.000 C 
ENDBRANCH  20  21
ENDBRANCH  19  20
ENDBRANCH  10  18
BRANCH   8  23
ATOM     23  C   UNL     1     135.330 154.118  86.849  0.00  0.00    +0.000 C 
BRANCH  23  24
ATOM     24  C   UNL     1     135.406 153.926  87.648  0.00  0.00    +0.000 C 
BRANCH  24  25
ATOM     25  N   UNL     1     134.933 153.336  87.978  0.00  0.00    +0.000 NA
BRANCH  25  26
ATOM     26  C   UNL     1     135.068 152.545  87.786  0.00  0.00    +0.000 C 
ATOM     27  C   UNL     1     134.756 151.947  88.261  0.00  0.00    +0.000 C 
ENDBRANCH  25  26
BRANCH  25  28
ATOM     28  C   UNL     1     134.326 153.537  88.498  0.00  0.00    +0.000 C 
ATOM     29  C   UNL     1     134.502 153.732  89.280  0.00  0.00    +0.000 C 
ENDBRANCH  25  28
ENDBRANCH  24  25
ENDBRANCH  23  24
ENDBRANCH   8  23
TORSDOF 8
ENDMDL
