REMARK  Name = 
REMARK  6 active torsions:
REMARK  status: ('A' for Active; 'I' for Inactive)
REMARK    1  A    between atoms: S_1  and  N_2
REMARK    2  A    between atoms: N_2  and  C_11
REMARK    3  A    between atoms: C_5  and  C_10
REMARK    4  A    between atoms: N_6  and  C_7
REMARK    5  A    between atoms: N_6  and  C_16
REMARK    6  A    between atoms: C_7  and  C_10
REMARK                            x       y       z     vdW  Elec       q    Type
REMARK                         _______ _______ _______ _____ _____    ______ ____
ROOT
ATOM      1  C   UNL     1       0.715  -0.412   0.000  0.00  0.00    +0.000 A 
ATOM      2  C   UNL     1       0.715   0.412   0.000  0.00  0.00    +0.000 A 
ATOM      3  C   UNL     1       0.000  -0.825   0.000  0.00  0.00    +0.000 A 
ATOM      4  C   UNL     1      -0.715   0.412   0.000  0.00  0.00    +0.000 A 
ATOM      5  C   UNL     1       0.000   0.825   0.000  0.00  0.00    +0.000 A 
ATOM      6  C   UNL     1      -0.715  -0.412   0.000  0.00  0.00    +0.000 A 
ENDROOT
BRANCH   1   7
ATOM      7  C   UNL     1       1.429  -0.827   0.000  0.00  0.00    +0.000 C 
ATOM      8  O   UNL     1       2.001  -0.498   0.000  0.00  0.00    +0.000 OA
BRANCH   7   9
ATOM      9  C   UNL     1       1.427  -1.652   0.000  0.00  0.00    +0.000 C 
BRANCH   9  10
ATOM     10  N   UNL     1       2.141  -2.066   0.000  0.00  0.00    +0.000 NA
BRANCH  10  11
ATOM     11  C   UNL     1       2.140  -2.892   0.000  0.00  0.00    +0.000 C 
ATOM     12  C   UNL     1       2.711  -3.223   0.000  0.00  0.00    +0.000 C 
ATOM     13  C   UNL     1       1.568  -3.221   0.000  0.00  0.00    +0.000 C 
ENDBRANCH  10  11
ENDBRANCH   9  10
ENDBRANCH   7   9
ENDBRANCH   1   7
BRANCH   4  14
ATOM     14  N   UNL     1      -1.430   0.824   0.000  0.00  0.00    +0.000 NA
BRANCH  14  15
ATOM     15  S   UNL     1      -2.144   0.410   0.000  0.00  0.00    +0.000 S 
ATOM     16  O   UNL     1      -2.717   0.739   0.000  0.00  0.00    +0.000 OA
ATOM     17  O   UNL     1      -2.143  -0.250   0.000  0.00  0.00    +0.000 OA
ATOM     18  C   UNL     1      -2.716   0.079   0.000  0.00  0.00    +0.000 C 
ENDBRANCH  14  15
ENDBRANCH   4  14
TORSDOF 6
