REMARK  Name = 
REMARK  10 active torsions:
REMARK  status: ('A' for Active; 'I' for Inactive)
REMARK    1  A    between atoms: C_1  and  C_7
REMARK    2  A    between atoms: C_1  and  O_11
REMARK    3  A    between atoms: N_3  and  C_8
REMARK    4  A    between atoms: N_3  and  C_18
REMARK    5  A    between atoms: O_4  and  C_6
REMARK    6  A    between atoms: O_4  and  C_10
REMARK    7  A    between atoms: C_5  and  C_8
REMARK    8  A    between atoms: C_5  and  C_10
REMARK    9  A    between atoms: C_7  and  C_12
REMARK   10  A    between atoms: C_9  and  C_12
REMARK                            x       y       z     vdW  Elec       q    Type
REMARK                         _______ _______ _______ _____ _____    ______ ____
ROOT
ATOM      1  C   UNL     1       4.429 -10.492   0.000  0.00  0.00    +0.000 A 
ATOM      2  C   UNL     1       5.654  -9.779   0.000  0.00  0.00    +0.000 A 
ATOM      3  C   UNL     1       5.042 -10.846   0.000  0.00  0.00    +0.000 A 
ATOM      4  C   UNL     1       4.429  -9.779   0.000  0.00  0.00    +0.000 A 
ATOM      5  C   UNL     1       5.654 -10.492   0.000  0.00  0.00    +0.000 A 
ATOM      6  C   UNL     1       5.042  -9.425   0.000  0.00  0.00    +0.000 A 
ENDROOT
BRANCH   1   7
ATOM      7  O   UNL     1       3.817 -10.846   0.000  0.00  0.00    +0.000 OA
BRANCH   7   8
ATOM      8  C   UNL     1       3.200 -10.492   0.000  0.00  0.00    +0.000 C 
BRANCH   8   9
ATOM      9  C   UNL     1       2.587 -10.846   0.000  0.00  0.00    +0.000 C 
ATOM     10  O   UNL     1       2.587 -11.554   0.000  0.00  0.00    +0.000 OA
BRANCH   9  11
ATOM     11  C   UNL     1       1.975 -10.492   0.000  0.00  0.00    +0.000 C 
BRANCH  11  12
ATOM     12  N   UNL     1       1.363 -10.846   0.000  0.00  0.00    +0.000 NA
BRANCH  12  13
ATOM     13  C   UNL     1       0.750 -10.492   0.000  0.00  0.00    +0.000 C 
ATOM     14  C   UNL     1       0.133 -10.842   0.000  0.00  0.00    +0.000 C 
ATOM     15  C   UNL     1       0.750  -9.783   0.000  0.00  0.00    +0.000 C 
ENDBRANCH  12  13
ENDBRANCH  11  12
ENDBRANCH   9  11
ENDBRANCH   8   9
ENDBRANCH   7   8
ENDBRANCH   1   7
BRANCH   2  16
ATOM     16  C   UNL     1       6.267  -9.421   0.000  0.00  0.00    +0.000 C 
BRANCH  16  17
ATOM     17  C   UNL     1       6.879  -9.775   0.000  0.00  0.00    +0.000 C 
BRANCH  17  18
ATOM     18  C   UNL     1       7.492  -9.417   0.000  0.00  0.00    +0.000 C 
ATOM     19  O   UNL     1       7.492  -8.708   0.000  0.00  0.00    +0.000 OA
BRANCH  18  20
ATOM     20  O   UNL     1       8.108  -9.771   0.000  0.00  0.00    +0.000 OA
ATOM     21  C   UNL     1       8.721  -9.412   0.000  0.00  0.00    +0.000 C 
ENDBRANCH  18  20
ENDBRANCH  17  18
ENDBRANCH  16  17
ENDBRANCH   2  16
TORSDOF 10
