REMARK  Name = 
REMARK  3 active torsions:
REMARK  status: ('A' for Active; 'I' for Inactive)
REMARK    1  A    between atoms: C_1  and  C_2
REMARK    2  A    between atoms: C_1  and  C_3
REMARK    3  A    between atoms: C_3  and  N_4
REMARK                            x       y       z     vdW  Elec       q    Type
REMARK                         _______ _______ _______ _____ _____    ______ ____
ROOT
ATOM      1  C   UNL     1      -0.271  -0.329   0.000  0.00  0.00    +0.000 C 
ATOM      2  O   UNL     1      -0.550  -1.742   0.000  0.00  0.00    +0.000 OA
ENDROOT
BRANCH   1   3
ATOM      3  C   UNL     1       1.067   0.121   0.000  0.00  0.00    +0.000 A 
ATOM      4  C   UNL     1       2.154  -0.812   0.000  0.00  0.00    +0.000 A 
ATOM      5  C   UNL     1       1.342   1.521   0.000  0.00  0.00    +0.000 A 
ATOM      6  C   UNL     1       3.513  -0.342   0.000  0.00  0.00    +0.000 A 
ATOM      7  C   UNL     1       2.712   1.996   0.000  0.00  0.00    +0.000 A 
ATOM      8  C   UNL     1       3.792   1.046   0.000  0.00  0.00    +0.000 A 
ENDBRANCH   1   3
BRANCH   1   9
ATOM      9  C   UNL     1      -1.350   0.600   0.000  0.00  0.00    +0.000 C 
ATOM     10  C   UNL     1      -1.071   2.021   0.000  0.00  0.00    +0.000 C 
BRANCH   9  11
ATOM     11  N   UNL     1      -2.721   0.138   0.000  0.00  0.00    +0.000 NA
ATOM     12  C   UNL     1      -3.796   1.083   0.000  0.00  0.00    +0.000 C 
ENDBRANCH   9  11
ENDBRANCH   1   9
TORSDOF 3
