REMARK  Name = 
REMARK  10 active torsions:
REMARK  status: ('A' for Active; 'I' for Inactive)
REMARK    1  A    between atoms: N_1  and  C_20
REMARK    2  A    between atoms: C_2  and  O_27
REMARK    3  A    between atoms: C_4  and  C_16
REMARK    4  A    between atoms: C_7  and  C_17
REMARK    5  A    between atoms: C_9  and  C_22
REMARK    6  A    between atoms: C_17  and  O_21
REMARK    7  A    between atoms: C_19  and  C_23
REMARK    8  A    between atoms: C_20  and  C_30
REMARK    9  A    between atoms: O_21  and  C_22
REMARK   10  A    between atoms: O_27  and  C_39
REMARK                            x       y       z     vdW  Elec       q    Type
REMARK                         _______ _______ _______ _____ _____    ______ ____
ROOT
ATOM      1  N   UNL     1      -1.821   0.450   0.000  0.00  0.00    +0.000 N 
ATOM      2  C   UNL     1      -2.304  -0.221   0.000  0.00  0.00    +0.000 A 
ATOM      3  N   UNL     1      -1.821  -0.887   0.000  0.00  0.00    +0.000 NA
ATOM      4  C   UNL     1      -1.038   0.192   0.000  0.00  0.00    +0.000 A 
ATOM      5  C   UNL     1      -0.321   0.604   0.000  0.00  0.00    +0.000 A 
ATOM      6  C   UNL     1      -1.038  -0.633   0.000  0.00  0.00    +0.000 A 
ATOM      7  C   UNL     1       0.392   0.192   0.000  0.00  0.00    +0.000 A 
ATOM      8  C   UNL     1      -0.321  -1.046   0.000  0.00  0.00    +0.000 A 
ATOM      9  C   UNL     1       0.392  -0.633   0.000  0.00  0.00    +0.000 A 
ENDROOT
BRANCH   5  10
ATOM     10  C   UNL     1      -0.321   1.429   0.000  0.00  0.00    +0.000 C 
ATOM     11  O   UNL     1      -1.038   1.842   0.000  0.00  0.00    +0.000 OA
BRANCH  10  12
ATOM     12  O   UNL     1       0.392   1.842   0.000  0.00  0.00    +0.000 OA
BRANCH  12  13
ATOM     13  C   UNL     1       0.392   2.667   0.000  0.00  0.00    +0.000 C 
BRANCH  13  14
ATOM     14  C   UNL     1       1.108   3.079   0.000  0.00  0.00    +0.000 A 
ATOM     15  C   UNL     1       2.000   4.071   0.000  0.00  0.00    +0.000 A 
ATOM     16  O   UNL     1       1.192   3.900   0.000  0.00  0.00    +0.000 OA
ATOM     17  O   UNL     1       2.413   3.358   0.000  0.00  0.00    +0.000 OA
ATOM     18  C   UNL     1       1.863   2.746   0.000  0.00  0.00    +0.000 A 
ATOM     19  O   UNL     1       2.337   4.821   0.000  0.00  0.00    +0.000 OA
ATOM     20  C   UNL     1       2.033   1.938   0.000  0.00  0.00    +0.000 C 
ENDBRANCH  13  14
ENDBRANCH  12  13
ENDBRANCH  10  12
ENDBRANCH   5  10
BRANCH   1  21
ATOM     21  C   UNL     1      -2.075   1.233   0.000  0.00  0.00    +0.000 C 
BRANCH  21  25
ATOM     22  C   UNL     1      -4.496   1.746   0.000  0.00  0.00    +0.000 A 
ATOM     23  C   UNL     1      -4.242   0.963   0.000  0.00  0.00    +0.000 A 
ATOM     24  C   UNL     1      -3.946   2.362   0.000  0.00  0.00    +0.000 A 
ATOM     25  C   UNL     1      -2.883   1.404   0.000  0.00  0.00    +0.000 A 
ATOM     26  C   UNL     1      -3.433   0.792   0.000  0.00  0.00    +0.000 A 
ATOM     27  C   UNL     1      -3.138   2.188   0.000  0.00  0.00    +0.000 A 
BRANCH  22  29
ATOM     28  C   UNL     1      -5.558   2.704   0.000  0.00  0.00    +0.000 A 
ATOM     29  C   UNL     1      -5.304   1.921   0.000  0.00  0.00    +0.000 A 
ATOM     30  C   UNL     1      -6.362   2.875   0.000  0.00  0.00    +0.000 A 
ATOM     31  C   UNL     1      -5.854   1.308   0.000  0.00  0.00    +0.000 A 
ATOM     32  C   UNL     1      -6.912   2.263   0.000  0.00  0.00    +0.000 A 
ATOM     33  C   UNL     1      -6.658   1.479   0.000  0.00  0.00    +0.000 A 
BRANCH  28  34
ATOM     34  C   UNL     1      -5.008   3.317   0.000  0.00  0.00    +0.000 A 
ATOM     35  N   UNL     1      -4.188   3.229   0.000  0.00  0.00    +0.000 NA
ATOM     36  N   UNL     1      -5.179   4.121   0.000  0.00  0.00    +0.000 NA
ATOM     37  C   UNL     1      -3.850   3.983   0.000  0.00  0.00    +0.000 A 
ATOM     38  O   UNL     1      -4.463   4.533   0.000  0.00  0.00    +0.000 OA
ATOM     39  O   UNL     1      -3.042   4.150   0.000  0.00  0.00    +0.000 OA
ENDBRANCH  28  34
ENDBRANCH  22  29
ENDBRANCH  21  25
ENDBRANCH   1  21
BRANCH   2  40
ATOM     40  O   UNL     1      -3.129  -0.221   0.000  0.00  0.00    +0.000 OA
BRANCH  40  41
ATOM     41  C   UNL     1      -3.542  -0.933   0.000  0.00  0.00    +0.000 C 
ATOM     42  C   UNL     1      -4.367  -0.933   0.000  0.00  0.00    +0.000 C 
ENDBRANCH  40  41
ENDBRANCH   2  40
TORSDOF 10
