REMARK  Name = 
REMARK  7 active torsions:
REMARK  status: ('A' for Active; 'I' for Inactive)
REMARK    1  A    between atoms: C_1  and  C_10
REMARK    2  A    between atoms: C_3  and  C_8
REMARK    3  A    between atoms: C_4  and  O_21
REMARK    4  A    between atoms: C_6  and  O_22
REMARK    5  A    between atoms: C_7  and  O_23
REMARK    6  A    between atoms: N_9  and  C_10
REMARK    7  A    between atoms: C_11  and  C_12
REMARK                            x       y       z     vdW  Elec       q    Type
REMARK                         _______ _______ _______ _____ _____    ______ ____
ROOT
ATOM      1  N   UNL     1       0.717  -0.942   0.000  0.00  0.00    +0.000 N 
ATOM      2  C   UNL     1       0.100  -1.317   0.000  0.00  0.00    +0.000 C 
ATOM      3  N   UNL     1       1.975  -0.179   0.000  0.00  0.00    +0.000 NA
ATOM      4  C   UNL     1       1.363  -1.304   0.000  0.00  0.00    +0.000 C 
ATOM      5  C   UNL     1       0.729  -0.192   0.000  0.00  0.00    +0.000 C 
ATOM      6  O   UNL     1       0.092  -2.054   0.000  0.00  0.00    +0.000 OA
ATOM      7  C   UNL     1       1.967  -0.967   0.000  0.00  0.00    +0.000 C 
ATOM      8  C   UNL     1       1.329   0.163   0.000  0.00  0.00    +0.000 C 
ENDROOT
BRANCH   2   9
ATOM      9  C   UNL     1      -0.533  -0.954   0.000  0.00  0.00    +0.000 C 
ATOM     10  C   UNL     1      -1.158  -1.329   0.000  0.00  0.00    +0.000 C 
BRANCH  10  14
ATOM     11  C   UNL     1      -3.062  -0.242   0.000  0.00  0.00    +0.000 A 
ATOM     12  C   UNL     1      -2.438   0.121   0.000  0.00  0.00    +0.000 A 
ATOM     13  C   UNL     1      -3.062  -0.979   0.000  0.00  0.00    +0.000 A 
ATOM     14  C   UNL     1      -1.796  -0.967   0.000  0.00  0.00    +0.000 A 
ATOM     15  C   UNL     1      -1.796  -0.237   0.000  0.00  0.00    +0.000 A 
ATOM     16  C   UNL     1      -2.421  -1.342   0.000  0.00  0.00    +0.000 A 
BRANCH  11  17
ATOM     17  O   UNL     1      -3.708   0.113   0.000  0.00  0.00    +0.000 OA
ATOM     18  C   UNL     1      -4.346  -0.254   0.000  0.00  0.00    +0.000 C 
ENDBRANCH  11  17
BRANCH  12  19
ATOM     19  O   UNL     1      -2.438   0.846   0.000  0.00  0.00    +0.000 OA
ATOM     20  C   UNL     1      -1.796   1.221   0.000  0.00  0.00    +0.000 C 
ENDBRANCH  12  19
BRANCH  13  21
ATOM     21  O   UNL     1      -3.696  -1.350   0.000  0.00  0.00    +0.000 OA
ATOM     22  C   UNL     1      -4.321  -1.017   0.000  0.00  0.00    +0.000 C 
ENDBRANCH  13  21
ENDBRANCH  10  14
ENDBRANCH   2   9
BRANCH   3  23
ATOM     23  C   UNL     1       2.600   0.200   0.000  0.00  0.00    +0.000 C 
BRANCH  23  24
ATOM     24  C   UNL     1       2.600   0.908   0.000  0.00  0.00    +0.000 C 
ATOM     25  N   UNL     1       3.217   1.283   0.000  0.00  0.00    +0.000 N 
ATOM     26  O   UNL     1       1.954   1.271   0.000  0.00  0.00    +0.000 OA
ATOM     27  C   UNL     1       3.917   1.062   0.000  0.00  0.00    +0.000 C 
ATOM     28  C   UNL     1       3.217   2.008   0.000  0.00  0.00    +0.000 C 
ATOM     29  C   UNL     1       4.338   1.658   0.000  0.00  0.00    +0.000 C 
ATOM     30  C   UNL     1       3.917   2.246   0.000  0.00  0.00    +0.000 C 
ENDBRANCH  23  24
ENDBRANCH   3  23
TORSDOF 7
