
     RDKit          2D

 22 23  0  0  1  0  0  0  0  0999 V2000
    2.7792   -1.4250    0.0000 C   0  0  0  0  0  0  0  0  0  0  0  0
    3.4042   -1.7750    0.0000 C   0  0  0  0  0  0  0  0  0  0  0  0
    2.7792   -0.7125    0.0000 C   0  0  0  0  0  0  0  0  0  0  0  0
    3.4042   -0.3542    0.0000 C   0  0  0  0  0  0  0  0  0  0  0  0
    4.0292   -1.4250    0.0000 C   0  0  0  0  0  0  0  0  0  0  0  0
    4.0292   -0.7125    0.0000 C   0  0  0  0  0  0  0  0  0  0  0  0
    2.1542   -1.7750    0.0000 C   0  0  0  0  0  0  0  0  0  0  0  0
    2.1542   -2.4875    0.0000 O   0  0  0  0  0  0  0  0  0  0  0  0
   -0.2792   -2.5000    0.0000 N   0  0  0  0  0  0  0  0  0  0  0  0
   -0.8833   -2.8542    0.0000 C   0  0  0  0  0  0  0  0  0  0  0  0
    0.9292   -2.5000    0.0000 C   0  0  0  0  0  0  0  0  0  0  0  0
    1.5417   -2.8417    0.0000 C   0  0  0  0  0  0  0  0  0  0  0  0
    0.3292   -2.8500    0.0000 C   0  0  0  0  0  0  0  0  0  0  0  0
    4.6542   -1.7750    0.0000 O   0  0  0  0  0  0  0  0  0  0  0  0
    4.6542   -0.3542    0.0000 O   0  0  0  0  0  0  0  0  0  0  0  0
    0.9208   -1.8042    0.0000 O   0  0  0  0  0  0  0  0  0  0  0  0
    2.1542   -0.3542    0.0000 C   0  0  0  0  0  0  0  0  0  0  0  0
    1.5292   -0.7125    0.0000 C   0  0  0  0  0  0  0  0  0  0  0  0
    1.5292   -1.4250    0.0000 C   0  0  0  0  0  0  0  0  0  0  0  0
   -1.5000   -2.5083    0.0000 C   0  0  0  0  0  0  0  0  0  0  0  0
   -0.5333   -3.4667    0.0000 C   0  0  0  0  0  0  0  0  0  0  0  0
   -1.2458   -3.4667    0.0000 C   0  0  0  0  0  0  0  0  0  0  0  0
  2  1  1  0
  3  1  2  0
  4  3  1  0
  5  2  1  0
  6  4  1  0
  7  1  1  0
  8  7  1  0
  9 13  1  0
 10  9  1  0
 11 12  1  0
 12  8  1  0
 13 11  1  0
  5 14  1  1
  6 15  1  1
 16 11  1  0
 17  3  1  0
 18 17  2  0
 19  7  2  0
 20 10  1  0
 21 10  1  0
 22 10  1  0
 19 18  1  0
  6  5  1  0
M  END


> <chembl_id>
CHEMBL649

> <chembl_pref_name>
NADOLOL
