REMARK  Name = 
REMARK  2 active torsions:
REMARK  status: ('A' for Active; 'I' for Inactive)
REMARK    1  A    between atoms: C_1  and  C_7
REMARK    2  A    between atoms: S_3  and  C_4
REMARK                            x       y       z     vdW  Elec       q    Type
REMARK                         _______ _______ _______ _____ _____    ______ ____
ROOT
ATOM      1  C   UNL     1       0.667  -1.929   0.000  0.00  0.00    +0.000 C 
ATOM      2  N   UNL     1       1.092  -1.363   0.000  0.00  0.00    +0.000 NA
ATOM      3  C   UNL     1       0.700  -0.792   0.000  0.00  0.00    +0.000 C 
ATOM      4  C   UNL     1       0.017  -1.704   0.000  0.00  0.00    +0.000 A 
ATOM      5  C   UNL     1       0.029  -1.000   0.000  0.00  0.00    +0.000 A 
ATOM      6  O   UNL     1       0.917  -0.117   0.000  0.00  0.00    +0.000 OA
ATOM      7  O   UNL     1       0.662  -2.638   0.000  0.00  0.00    +0.000 OA
ATOM      8  C   UNL     1      -0.613  -2.062   0.000  0.00  0.00    +0.000 A 
ATOM      9  C   UNL     1      -0.583  -0.625   0.000  0.00  0.00    +0.000 A 
ATOM     10  C   UNL     1      -1.233  -1.712   0.000  0.00  0.00    +0.000 A 
ATOM     11  C   UNL     1      -1.221  -0.979   0.000  0.00  0.00    +0.000 A 
ENDROOT
BRANCH   1  13
ATOM     12  C   UNL     1       2.500  -2.304   0.000  0.00  0.00    +0.000 A 
ATOM     13  C   UNL     1       1.275  -2.288   0.000  0.00  0.00    +0.000 A 
ATOM     14  C   UNL     1       1.887  -1.942   0.000  0.00  0.00    +0.000 A 
ATOM     15  C   UNL     1       2.496  -3.013   0.000  0.00  0.00    +0.000 A 
ATOM     16  C   UNL     1       1.267  -2.996   0.000  0.00  0.00    +0.000 A 
ATOM     17  C   UNL     1       1.879  -3.358   0.000  0.00  0.00    +0.000 A 
ATOM     18 CL   UNL     1       3.108  -3.379   0.000  0.00  0.00    +0.000 Cl
BRANCH  12  19
ATOM     19  S   UNL     1       3.121  -1.958   0.000  0.00  0.00    +0.000 S 
ATOM     20  O   UNL     1       3.483  -1.346   0.000  0.00  0.00    +0.000 OA
ATOM     21  O   UNL     1       2.775  -1.337   0.000  0.00  0.00    +0.000 OA
ATOM     22  N   UNL     1       3.721  -2.312   0.000  0.00  0.00    +0.000 NA
ENDBRANCH  12  19
ENDBRANCH   1  13
TORSDOF 2
