
     RDKit          2D

 26 25  0  0  0  0  0  0  0  0999 V2000
    6.3987    0.4480    0.0000 O   0  0  0  0  0  0  0  0  0  0  0  0
    5.3593   -1.3516    0.0000 O   0  0  0  0  0  0  0  0  0  0  0  0
   12.6381   -1.3516    0.0000 O   0  0  0  0  0  0  0  0  0  0  0  0
    7.6987   -2.7020    0.0000 N   0  0  0  0  0  0  0  0  0  0  0  0
   11.5987    0.4480    0.0000 N   0  0  0  0  0  0  0  0  0  0  0  0
    8.9987   -0.7520    0.0000 C   0  0  0  0  0  0  0  0  0  0  0  0
    7.6987   -1.5020    0.0000 C   0  0  0  0  0  0  0  0  0  0  0  0
   10.2987   -1.5020    0.0000 C   0  0  0  0  0  0  0  0  0  0  0  0
    6.3987   -0.7520    0.0000 C   0  0  0  0  0  0  0  0  0  0  0  0
   11.5987   -0.7520    0.0000 C   0  0  0  0  0  0  0  0  0  0  0  0
   -3.8933   -3.7570    0.0000 P   0  0  0  0  0  0  0  0  0  0  0  0
   -2.5951   -3.0039    0.0000 O   0  0  0  0  0  0  0  0  0  0  0  0
    0.0000    2.7000    0.0000 O   0  0  0  0  0  0  0  0  0  0  0  0
   -2.5956    2.7031    0.0000 O   0  0  0  0  0  0  0  0  0  0  0  0
   -4.9336   -3.1588    0.0000 O   0  0  0  0  0  0  0  0  0  0  0  0
   -4.9316   -4.3587    0.0000 O   0  0  0  0  0  0  0  0  0  0  0  0
   -3.8916   -4.9570    0.0000 O   0  0  0  0  0  0  0  0  0  0  0  0
    1.2990   -0.7500    0.0000 N   0  0  0  0  0  0  0  0  0  0  0  0
   -1.2990   -0.7500    0.0000 C   0  0  0  0  0  0  0  0  0  0  0  0
   -1.2990    0.7500    0.0000 C   0  0  0  0  0  0  0  0  0  0  0  0
   -2.5972   -1.5031    0.0000 C   0  0  0  0  0  0  0  0  0  0  0  0
    0.0000    1.5000    0.0000 C   0  0  0  0  0  0  0  0  0  0  0  0
    1.2990    0.7500    0.0000 C   0  0  0  0  0  0  0  0  0  0  0  0
    0.0000   -1.5000    0.0000 C   0  0  0  0  0  0  0  0  0  0  0  0
    2.3383    1.3500    0.0000 C   0  0  0  0  0  0  0  0  0  0  0  0
   -2.5973    1.5031    0.0000 C   0  0  0  0  0  0  0  0  0  0  0  0
  1  9  1  0
  2  9  2  0
  3 10  2  0
  7  4  1  6
  5 10  1  0
  6  7  1  0
  6  8  1  0
  7  9  1  0
  8 10  1  0
 11 12  1  0
 11 15  1  0
 11 16  1  0
 11 17  2  0
 12 21  1  0
 13 22  1  0
 14 26  2  0
 18 23  2  0
 18 24  1  0
 19 20  1  0
 19 21  1  0
 19 24  2  0
 20 22  2  0
 20 26  1  0
 22 23  1  0
 23 25  1  0
M  END

> <chembl_id>
CHEMBL3707339

> <chembl_pref_name>
PYRIDOXAL 5-PHOSPHATE GLUTAMIC ACID
