REMARK  Name = 
REMARK  10 active torsions:
REMARK  status: ('A' for Active; 'I' for Inactive)
REMARK    1  A    between atoms: C_2  and  C_5
REMARK    2  A    between atoms: N_3  and  C_8
REMARK    3  A    between atoms: C_4  and  O_10
REMARK    4  A    between atoms: N_6  and  C_20
REMARK    5  A    between atoms: N_6  and  C_21
REMARK    6  A    between atoms: O_10  and  C_16
REMARK    7  A    between atoms: N_11  and  C_13
REMARK    8  A    between atoms: N_11  and  C_17
REMARK    9  A    between atoms: C_15  and  C_16
REMARK   10  A    between atoms: C_15  and  C_17
REMARK                            x       y       z     vdW  Elec       q    Type
REMARK                         _______ _______ _______ _____ _____    ______ ____
ROOT
ATOM      1  C   UNL     1       1.050  -0.804   0.000  0.00  0.00    +0.000 A 
ATOM      2  C   UNL     1       1.654  -0.454   0.000  0.00  0.00    +0.000 A 
ATOM      3  C   UNL     1       0.450  -0.454   0.000  0.00  0.00    +0.000 A 
ATOM      4  C   UNL     1       0.450   0.263   0.000  0.00  0.00    +0.000 A 
ATOM      5  C   UNL     1       1.654   0.263   0.000  0.00  0.00    +0.000 A 
ATOM      6  C   UNL     1       1.050   0.621   0.000  0.00  0.00    +0.000 A 
ENDROOT
BRANCH   4   8
ATOM      7  C   UNL     1      -0.796   0.263   0.000  0.00  0.00    +0.000 C 
ATOM      8  N   UNL     1      -0.175   0.621   0.000  0.00  0.00    +0.000 NA
ATOM      9  N   UNL     1      -1.387   0.621   0.000  0.00  0.00    +0.000 N 
ATOM     10  O   UNL     1      -0.796  -0.442   0.000  0.00  0.00    +0.000 OA
BRANCH   9  11
ATOM     11  C   UNL     1      -1.996   0.250   0.000  0.00  0.00    +0.000 C 
ATOM     12  C   UNL     1      -2.608   0.621   0.000  0.00  0.00    +0.000 C 
ENDBRANCH   9  11
BRANCH   9  13
ATOM     13  C   UNL     1      -1.387   1.321   0.000  0.00  0.00    +0.000 C 
ATOM     14  C   UNL     1      -1.983   1.671   0.000  0.00  0.00    +0.000 C 
ENDBRANCH   9  13
ENDBRANCH   4   8
BRANCH   1  15
ATOM     15  C   UNL     1       1.042  -1.517   0.000  0.00  0.00    +0.000 C 
ATOM     16  O   UNL     1       0.429  -1.867   0.000  0.00  0.00    +0.000 OA
ATOM     17  C   UNL     1       1.650  -1.875   0.000  0.00  0.00    +0.000 C 
ENDBRANCH   1  15
BRANCH   2  18
ATOM     18  O   UNL     1       2.279  -0.817   0.000  0.00  0.00    +0.000 OA
BRANCH  18  19
ATOM     19  C   UNL     1       2.879  -0.467   0.000  0.00  0.00    +0.000 C 
BRANCH  19  20
ATOM     20  C   UNL     1       3.492  -0.817   0.000  0.00  0.00    +0.000 C 
ATOM     21  O   UNL     1       3.492  -1.525   0.000  0.00  0.00    +0.000 OA
BRANCH  20  22
ATOM     22  C   UNL     1       4.104  -0.467   0.000  0.00  0.00    +0.000 C 
BRANCH  22  23
ATOM     23  N   UNL     1       4.717  -0.817   0.000  0.00  0.00    +0.000 NA
BRANCH  23  24
ATOM     24  C   UNL     1       5.342  -0.467   0.000  0.00  0.00    +0.000 C 
ATOM     25  C   UNL     1       5.942  -0.817   0.000  0.00  0.00    +0.000 C 
ATOM     26  C   UNL     1       5.917  -0.117   0.000  0.00  0.00    +0.000 C 
ATOM     27  C   UNL     1       5.317   0.350   0.000  0.00  0.00    +0.000 C 
ENDBRANCH  23  24
ENDBRANCH  22  23
ENDBRANCH  20  22
ENDBRANCH  19  20
ENDBRANCH  18  19
ENDBRANCH   2  18
TORSDOF 10
