REMARK  Name = 
REMARK  8 active torsions:
REMARK  status: ('A' for Active; 'I' for Inactive)
REMARK    1  A    between atoms: C_1  and  C_2
REMARK    2  A    between atoms: C_1  and  C_3
REMARK    3  A    between atoms: C_1  and  C_9
REMARK    4  A    between atoms: N_4  and  C_7
REMARK    5  A    between atoms: N_4  and  C_8
REMARK    6  A    between atoms: C_5  and  C_6
REMARK    7  A    between atoms: C_5  and  C_8
REMARK    8  A    between atoms: C_7  and  C_9
REMARK                            x       y       z     vdW  Elec       q    Type
REMARK                         _______ _______ _______ _____ _____    ______ ____
ROOT
ATOM      1  C   UNL     1      -2.983  -0.013   0.000  0.00  0.00    +0.000 C 
ENDROOT
BRANCH   1   2
ATOM      2  C   UNL     1      -2.983  -1.217   0.000  0.00  0.00    +0.000 A 
ATOM      3  C   UNL     1      -1.958  -1.804   0.000  0.00  0.00    +0.000 A 
ATOM      4  C   UNL     1      -4.008  -1.792   0.000  0.00  0.00    +0.000 A 
ATOM      5  C   UNL     1      -4.008  -2.979   0.000  0.00  0.00    +0.000 A 
ATOM      6  C   UNL     1      -1.958  -2.967   0.000  0.00  0.00    +0.000 A 
ATOM      7  C   UNL     1      -3.000  -3.587   0.000  0.00  0.00    +0.000 A 
ENDBRANCH   1   2
BRANCH   1   8
ATOM      8  C   UNL     1      -2.983   1.208   0.000  0.00  0.00    +0.000 A 
ATOM      9  C   UNL     1      -4.046   1.812   0.000  0.00  0.00    +0.000 A 
ATOM     10  C   UNL     1      -1.983   1.796   0.000  0.00  0.00    +0.000 A 
ATOM     11  C   UNL     1      -1.983   2.983   0.000  0.00  0.00    +0.000 A 
ATOM     12  C   UNL     1      -4.021   2.987   0.000  0.00  0.00    +0.000 A 
ATOM     13  C   UNL     1      -3.046   3.596   0.000  0.00  0.00    +0.000 A 
ENDBRANCH   1   8
BRANCH   1  14
ATOM     14  C   UNL     1      -1.808  -0.013   0.000  0.00  0.00    +0.000 C 
BRANCH  14  15
ATOM     15  C   UNL     1      -1.246  -1.017   0.000  0.00  0.00    +0.000 C 
BRANCH  15  16
ATOM     16  N   UNL     1      -0.071  -1.038   0.000  0.00  0.00    +0.000 NA
BRANCH  16  17
ATOM     17  C   UNL     1       0.517  -0.025   0.000  0.00  0.00    +0.000 C 
ATOM     18  C   UNL     1      -0.058   0.983   0.000  0.00  0.00    +0.000 C 
BRANCH  17  19
ATOM     19  C   UNL     1       1.679  -0.025   0.000  0.00  0.00    +0.000 C 
BRANCH  19  20
ATOM     20  C   UNL     1       2.267   0.983   0.000  0.00  0.00    +0.000 A 
ATOM     21  C   UNL     1       1.679   1.996   0.000  0.00  0.00    +0.000 A 
ATOM     22  C   UNL     1       3.442   0.983   0.000  0.00  0.00    +0.000 A 
ATOM     23  C   UNL     1       2.267   3.021   0.000  0.00  0.00    +0.000 A 
ATOM     24  C   UNL     1       4.037   1.983   0.000  0.00  0.00    +0.000 A 
ATOM     25  C   UNL     1       3.442   3.008   0.000  0.00  0.00    +0.000 A 
ENDBRANCH  19  20
ENDBRANCH  17  19
ENDBRANCH  16  17
ENDBRANCH  15  16
ENDBRANCH  14  15
ENDBRANCH   1  14
TORSDOF 8
