REMARK  Name = 
REMARK  9 active torsions:
REMARK  status: ('A' for Active; 'I' for Inactive)
REMARK    1  A    between atoms: C_2  and  C_3
REMARK    2  A    between atoms: C_3  and  O_4
REMARK    3  A    between atoms: O_4  and  C_5
REMARK    4  A    between atoms: C_12  and  C_39
REMARK    5  A    between atoms: C_13  and  O_15
REMARK    6  A    between atoms: O_15  and  C_18
REMARK    7  A    between atoms: C_20  and  C_24
REMARK    8  A    between atoms: C_24  and  O_25
REMARK    9  A    between atoms: O_25  and  C_26
REMARK                            x       y       z     vdW  Elec       q    Type
REMARK                         _______ _______ _______ _____ _____    ______ ____
ROOT
ATOM      1  C   UNL     1      -2.466   0.093   0.000  0.00  0.00    +0.000 A 
ATOM      2  C   UNL     1      -2.466   0.918   0.000  0.00  0.00    +0.000 A 
ATOM      3  C   UNL     1      -1.752   1.330   0.000  0.00  0.00    +0.000 A 
ATOM      4  C   UNL     1      -1.037   0.918   0.000  0.00  0.00    +0.000 A 
ATOM      5  C   UNL     1      -1.037   0.093   0.000  0.00  0.00    +0.000 A 
ATOM      6  C   UNL     1      -1.752  -0.320   0.000  0.00  0.00    +0.000 A 
ATOM      7  O   UNL     1      -0.323  -0.320   0.000  0.00  0.00    +0.000 OA
ATOM      8  C   UNL     1       0.392   0.093   0.000  0.00  0.00    +0.000 A 
ATOM      9  C   UNL     1       0.392   0.918   0.000  0.00  0.00    +0.000 A 
ATOM     10  C   UNL     1      -0.323   1.330   0.000  0.00  0.00    +0.000 A 
ATOM     11  O   UNL     1      -0.323   2.155   0.000  0.00  0.00    +0.000 OA
ATOM     12  O   UNL     1      -1.752   2.155   0.000  0.00  0.00    +0.000 OA
ENDROOT
BRANCH   8  13
ATOM     13  C   UNL     1       1.106  -0.320   0.000  0.00  0.00    +0.000 A 
ATOM     14  C   UNL     1       1.106  -1.145   0.000  0.00  0.00    +0.000 A 
ATOM     15  C   UNL     1       1.821  -1.557   0.000  0.00  0.00    +0.000 A 
ATOM     16  C   UNL     1       2.535  -1.145   0.000  0.00  0.00    +0.000 A 
ATOM     17  C   UNL     1       2.535  -0.320   0.000  0.00  0.00    +0.000 A 
ATOM     18  C   UNL     1       1.821   0.093   0.000  0.00  0.00    +0.000 A 
ATOM     19  O   UNL     1       3.250  -1.557   0.000  0.00  0.00    +0.000 OA
ATOM     20  O   UNL     1       3.250   0.093   0.000  0.00  0.00    +0.000 OA
ENDBRANCH   8  13
BRANCH   1  21
ATOM     21  O   UNL     1      -3.180  -0.320   0.000  0.00  0.00    +0.000 OA
BRANCH  21  22
ATOM     22  C   UNL     1      -3.895   0.093   0.000  0.00  0.00    +0.000 C 
BRANCH  22  24
ATOM     23  O   UNL     1      -5.324   0.093   0.000  0.00  0.00    +0.000 OA
ATOM     24  C   UNL     1      -4.609  -0.320   0.000  0.00  0.00    +0.000 C 
ENDBRANCH  22  24
ENDBRANCH  21  22
ENDBRANCH   1  21
BRANCH   9  25
ATOM     25  O   UNL     1       1.106   1.330   0.000  0.00  0.00    +0.000 OA
BRANCH  25  26
ATOM     26  C   UNL     1       1.106   2.155   0.000  0.00  0.00    +0.000 C 
ATOM     27  O   UNL     1       0.392   2.568   0.000  0.00  0.00    +0.000 OA
ATOM     28  C   UNL     1       0.392   3.393   0.000  0.00  0.00    +0.000 C 
ATOM     29  C   UNL     1       1.106   3.805   0.000  0.00  0.00    +0.000 C 
ATOM     30  C   UNL     1       1.821   3.393   0.000  0.00  0.00    +0.000 C 
ATOM     31  C   UNL     1       1.821   2.568   0.000  0.00  0.00    +0.000 C 
ATOM     32  O   UNL     1       1.106   4.630   0.000  0.00  0.00    +0.000 OA
ATOM     33  O   UNL     1       2.535   3.805   0.000  0.00  0.00    +0.000 OA
ATOM     34  O   UNL     1       2.535   2.155   0.000  0.00  0.00    +0.000 OA
BRANCH  28  35
ATOM     35  C   UNL     1      -0.323   3.805   0.000  0.00  0.00    +0.000 C 
BRANCH  35  36
ATOM     36  O   UNL     1      -1.037   3.393   0.000  0.00  0.00    +0.000 OA
BRANCH  36  37
ATOM     37  C   UNL     1      -1.752   3.805   0.000  0.00  0.00    +0.000 C 
ATOM     38  O   UNL     1      -2.466   3.393   0.000  0.00  0.00    +0.000 OA
ATOM     39  C   UNL     1      -3.180   3.805   0.000  0.00  0.00    +0.000 C 
ATOM     40  C   UNL     1      -3.180   4.630   0.000  0.00  0.00    +0.000 C 
ATOM     41  C   UNL     1      -2.466   5.043   0.000  0.00  0.00    +0.000 C 
ATOM     42  C   UNL     1      -1.752   4.630   0.000  0.00  0.00    +0.000 C 
ATOM     43  C   UNL     1      -3.895   3.393   0.000  0.00  0.00    +0.000 C 
ATOM     44  O   UNL     1      -3.895   5.043   0.000  0.00  0.00    +0.000 OA
ATOM     45  O   UNL     1      -2.466   5.868   0.000  0.00  0.00    +0.000 OA
ATOM     46  O   UNL     1      -1.037   5.043   0.000  0.00  0.00    +0.000 OA
ENDBRANCH  36  37
ENDBRANCH  35  36
ENDBRANCH  28  35
ENDBRANCH  25  26
ENDBRANCH   9  25
TORSDOF 9
