REMARK  Name = 
REMARK  5 active torsions:
REMARK  status: ('A' for Active; 'I' for Inactive)
REMARK    1  A    between atoms: C_1  and  O_10
REMARK    2  A    between atoms: C_2  and  C_5
REMARK    3  A    between atoms: C_3  and  O_11
REMARK    4  A    between atoms: N_4  and  C_5
REMARK    5  A    between atoms: C_6  and  O_12
REMARK                            x       y       z     vdW  Elec       q    Type
REMARK                         _______ _______ _______ _____ _____    ______ ____
ROOT
ATOM      1  C   UNL     1       1.804   0.421   0.000  0.00  0.00    +0.000 A 
ATOM      2  C   UNL     1      -0.188   0.463   0.000  0.00  0.00    +0.000 A 
ATOM      3  C   UNL     1       0.817   1.021   0.000  0.00  0.00    +0.000 A 
ATOM      4  C   UNL     1       1.779  -0.729   0.000  0.00  0.00    +0.000 A 
ATOM      5  C   UNL     1      -0.212  -0.692   0.000  0.00  0.00    +0.000 A 
ATOM      6  C   UNL     1       0.779  -1.279   0.000  0.00  0.00    +0.000 A 
ENDROOT
BRANCH   1   7
ATOM      7  O   UNL     1       2.812   0.983   0.000  0.00  0.00    +0.000 OA
ATOM      8  C   UNL     1       3.800   0.388   0.000  0.00  0.00    +0.000 C 
ENDBRANCH   1   7
BRANCH   3   9
ATOM      9  O   UNL     1       0.838   2.171   0.000  0.00  0.00    +0.000 OA
ATOM     10  C   UNL     1       1.842   2.725   0.000  0.00  0.00    +0.000 C 
ENDBRANCH   3   9
BRANCH   4  11
ATOM     11  O   UNL     1       2.767  -1.317   0.000  0.00  0.00    +0.000 OA
ATOM     12  C   UNL     1       2.750  -2.475   0.000  0.00  0.00    +0.000 C 
ENDBRANCH   4  11
BRANCH   2  13
ATOM     13  C   UNL     1      -1.183   1.058   0.000  0.00  0.00    +0.000 C 
BRANCH  13  14
ATOM     14  N   UNL     1      -2.183   0.496   0.000  0.00  0.00    +0.000 NA
ATOM     15  N   UNL     1      -4.208  -0.617   0.000  0.00  0.00    +0.000 NA
ATOM     16  C   UNL     1      -2.208  -0.654   0.000  0.00  0.00    +0.000 C 
ATOM     17  C   UNL     1      -3.171   1.096   0.000  0.00  0.00    +0.000 C 
ATOM     18  C   UNL     1      -4.183   0.533   0.000  0.00  0.00    +0.000 C 
ATOM     19  C   UNL     1      -3.212  -1.212   0.000  0.00  0.00    +0.000 C 
ENDBRANCH  13  14
ENDBRANCH   2  13
TORSDOF 5
