REMARK  Name = 
REMARK  4 active torsions:
REMARK  status: ('A' for Active; 'I' for Inactive)
REMARK    1  A    between atoms: N_1  and  O_4
REMARK    2  A    between atoms: O_4  and  C_5
REMARK    3  A    between atoms: C_5  and  C_7
REMARK    4  A    between atoms: S_8  and  C_9
REMARK                            x       y       z     vdW  Elec       q    Type
REMARK                         _______ _______ _______ _____ _____    ______ ____
ROOT
ATOM      1  O   UNL     1       2.954  -0.642   0.000  0.00  0.00    +0.000 OA
ENDROOT
BRANCH   1   2
ATOM      2  N   UNL     1       3.337   0.025   0.000  0.00  0.00    +0.000 N 
ATOM      3  O   UNL     1       2.938   0.708   0.000  0.00  0.00    +0.000 OA
ATOM      4  O   UNL     1       4.129   0.025   0.000  0.00  0.00    +0.000 OA
ENDBRANCH   1   2
BRANCH   1   5
ATOM      5  C   UNL     1       2.179  -0.642   0.000  0.00  0.00    +0.000 C 
BRANCH   5   7
ATOM      6  N   UNL     1       1.004   0.037   0.000  0.00  0.00    +0.000 NA
ATOM      7  C   UNL     1       1.779   0.037   0.000  0.00  0.00    +0.000 C 
ENDBRANCH   5   7
ENDBRANCH   1   5
TORSDOF 3
REMARK  Name = 
REMARK  4 active torsions:
REMARK  status: ('A' for Active; 'I' for Inactive)
REMARK    1  A    between atoms: N_1  and  O_4
REMARK    2  A    between atoms: O_4  and  C_5
REMARK    3  A    between atoms: C_5  and  C_7
REMARK    4  A    between atoms: S_8  and  C_9
REMARK                            x       y       z     vdW  Elec       q    Type
REMARK                         _______ _______ _______ _____ _____    ______ ____
ROOT
ATOM      1  C   UNL     1      -2.058   0.037   0.000  0.00  0.00    +0.000 A 
ATOM      2  C   UNL     1      -2.446   0.696   0.000  0.00  0.00    +0.000 A 
ATOM      3  C   UNL     1      -2.446  -0.637   0.000  0.00  0.00    +0.000 A 
ATOM      4  C   UNL     1      -3.196  -0.637   0.000  0.00  0.00    +0.000 A 
ATOM      5  C   UNL     1      -3.196   0.696   0.000  0.00  0.00    +0.000 A 
ATOM      6  C   UNL     1      -3.583   0.037   0.000  0.00  0.00    +0.000 A 
ATOM      7  C   UNL     1      -4.346   0.037   0.000  0.00  0.00    +0.000 C 
ENDROOT
BRANCH   1   8
ATOM      8  S   UNL     1      -1.283   0.025   0.000  0.00  0.00    +0.000 S 
ATOM      9  O   UNL     1      -1.283   0.808   0.000  0.00  0.00    +0.000 OA
ATOM     10  O   UNL     1      -0.508   0.025   0.000  0.00  0.00    +0.000 OA
ATOM     11  O   UNL     1      -1.283  -0.754   0.000  0.00  0.00    +0.000 OA
ENDBRANCH   1   8
TORSDOF 1
