REMARK  Name = 
REMARK  4 active torsions:
REMARK  status: ('A' for Active; 'I' for Inactive)
REMARK    1  A    between atoms: C_1  and  C_4
REMARK    2  A    between atoms: C_4  and  C_10
REMARK    3  A    between atoms: C_4  and  C_11
REMARK    4  A    between atoms: C_10  and  C_12
REMARK                            x       y       z     vdW  Elec       q    Type
REMARK                         _______ _______ _______ _____ _____    ______ ____
ROOT
ATOM      1  C   UNL     1       1.029   0.458   0.000  0.00  0.00    +0.000 A 
ATOM      2  C   UNL     1       0.412   0.100   0.000  0.00  0.00    +0.000 A 
ATOM      3  C   UNL     1       1.029   1.171   0.000  0.00  0.00    +0.000 A 
ATOM      4  O   UNL     1       0.412   1.525   0.000  0.00  0.00    +0.000 OA
ATOM      5  C   UNL     1      -0.208   0.458   0.000  0.00  0.00    +0.000 A 
ATOM      6  C   UNL     1      -0.208   1.171   0.000  0.00  0.00    +0.000 A 
ATOM      7  O   UNL     1       0.412  -0.604   0.000  0.00  0.00    +0.000 OA
ATOM      8  O   UNL     1       1.637   1.525   0.000  0.00  0.00    +0.000 OA
ATOM      9  C   UNL     1      -0.821   0.100   0.000  0.00  0.00    +0.000 A 
ATOM     10  C   UNL     1      -0.821   1.525   0.000  0.00  0.00    +0.000 A 
ATOM     11  C   UNL     1      -1.433   0.458   0.000  0.00  0.00    +0.000 A 
ATOM     12  C   UNL     1      -1.433   1.171   0.000  0.00  0.00    +0.000 A 
ENDROOT
BRANCH   1  13
ATOM     13  C   UNL     1       1.637   0.100   0.000  0.00  0.00    +0.000 C 
BRANCH  13  14
ATOM     14  C   UNL     1       1.637  -0.604   0.000  0.00  0.00    +0.000 A 
ATOM     15  C   UNL     1       2.254  -0.967   0.000  0.00  0.00    +0.000 A 
ATOM     16  C   UNL     1       1.029  -0.967   0.000  0.00  0.00    +0.000 A 
ATOM     17  C   UNL     1       2.254  -1.679   0.000  0.00  0.00    +0.000 A 
ATOM     18  C   UNL     1       1.029  -1.679   0.000  0.00  0.00    +0.000 A 
ATOM     19  C   UNL     1       1.637  -2.029   0.000  0.00  0.00    +0.000 A 
ENDBRANCH  13  14
BRANCH  13  20
ATOM     20  C   UNL     1       2.254   0.458   0.000  0.00  0.00    +0.000 C 
BRANCH  20  21
ATOM     21  C   UNL     1       2.862   0.108   0.000  0.00  0.00    +0.000 C 
ATOM     22  O   UNL     1       2.842  -0.604   0.000  0.00  0.00    +0.000 OA
ATOM     23  C   UNL     1       3.479   0.450   0.000  0.00  0.00    +0.000 C 
ENDBRANCH  20  21
ENDBRANCH  13  20
ENDBRANCH   1  13
TORSDOF 4
