REMARK  Name = 
REMARK  10 active torsions:
REMARK  status: ('A' for Active; 'I' for Inactive)
REMARK    1  A    between atoms: CA_2  and  C_6
REMARK    2  A    between atoms: C_3  and  CA_9
REMARK    3  A    between atoms: N_7  and  CA_9
REMARK    4  A    between atoms: N_7  and  C_11
REMARK    5  A    between atoms: C_10  and  C_11
REMARK    6  A    between atoms: C_10  and  O_17
REMARK    7  A    between atoms: C_11  and  C_15
REMARK    8  A    between atoms: C_15  and  C_18
REMARK    9  A    between atoms: O_17  and  C_23
REMARK   10  A    between atoms: C_18  and  C_19
REMARK                            x       y       z     vdW  Elec       q    Type
REMARK                         _______ _______ _______ _____ _____    ______ ____
ROOT
ATOM      1  CA  ALA A   1       1.613  -1.113   0.000  0.00  0.00    +0.000 C 
ATOM      2  CB  ALA A   1       1.613  -0.379   0.000  0.00  0.00    +0.000 C 
ENDROOT
BRANCH   1   5
ATOM      3  N   ALA A   1       2.254  -2.317   0.000  0.00  0.00    +0.000 N 
ATOM      4  CA  ALA A   1       2.888  -2.579   0.000  0.00  0.00    +0.000 C 
ATOM      5  C   ALA A   1       2.254  -1.442   0.000  0.00  0.00    +0.000 C 
ATOM      6  C   ALA A   1       1.788  -2.829   0.000  0.00  0.00    +0.000 C 
ATOM      7  C   ALA A   1       2.829  -3.300   0.000  0.00  0.00    +0.000 C 
ATOM      8  C   ALA A   1       2.133  -3.454   0.000  0.00  0.00    +0.000 C 
ATOM      9  O   ALA A   1       2.854  -1.079   0.000  0.00  0.00    +0.000 OA
ATOM     10  C   ALA A   1       1.075  -2.842   0.000  0.00  0.00    +0.000 C 
ATOM     11  C   ALA A   1       1.804  -4.071   0.000  0.00  0.00    +0.000 C 
ATOM     12  C   ALA A   1       0.729  -3.479   0.000  0.00  0.00    +0.000 C 
ATOM     13  C   ALA A   1       1.113  -4.067   0.000  0.00  0.00    +0.000 C 
BRANCH   4  14
ATOM     14  C   ALA A   1       3.475  -2.229   0.000  0.00  0.00    +0.000 C 
ATOM     15  O   ALA A   1       3.467  -1.525   0.000  0.00  0.00    +0.000 OA
ATOM     16  OXT ALA A   1       4.054  -2.550   0.000  0.00  0.00    +0.000 OA
ENDBRANCH   4  14
ENDBRANCH   1   5
BRANCH   1  17
ATOM     17  N   ALA A   1       1.004  -1.467   0.000  0.00  0.00    +0.000 NA
BRANCH  17  18
ATOM     18  C   UNK A   0       0.379  -1.137   0.000  0.00  0.00    +0.000 C 
BRANCH  18  19
ATOM     19  C   UNK A   0       0.379  -0.429   0.000  0.00  0.00    +0.000 C 
ATOM     20  O   UNK A   0       0.963  -0.067   0.000  0.00  0.00    +0.000 OA
BRANCH  19  21
ATOM     21  O   UNK A   0      -0.233  -0.104   0.000  0.00  0.00    +0.000 OA
BRANCH  21  22
ATOM     22  C   UNK A   0      -0.846  -0.467   0.000  0.00  0.00    +0.000 C 
ATOM     23  C   UNK A   0      -1.450  -0.117   0.000  0.00  0.00    +0.000 C 
ENDBRANCH  21  22
ENDBRANCH  19  21
ENDBRANCH  18  19
BRANCH  18  24
ATOM     24  C   UNK A   0      -0.221  -1.504   0.000  0.00  0.00    +0.000 C 
BRANCH  24  25
ATOM     25  C   UNK A   0      -0.846  -1.154   0.000  0.00  0.00    +0.000 C 
BRANCH  25  26
ATOM     26  C   UNK A   0      -1.458  -1.517   0.000  0.00  0.00    +0.000 A 
ATOM     27  C   UNK A   0      -1.458  -2.237   0.000  0.00  0.00    +0.000 A 
ATOM     28  C   UNK A   0      -2.071  -1.154   0.000  0.00  0.00    +0.000 A 
ATOM     29  C   UNK A   0      -2.071  -2.592   0.000  0.00  0.00    +0.000 A 
ATOM     30  C   UNK A   0      -2.683  -1.517   0.000  0.00  0.00    +0.000 A 
ATOM     31  C   UNK A   0      -2.683  -2.237   0.000  0.00  0.00    +0.000 A 
ENDBRANCH  25  26
ENDBRANCH  24  25
ENDBRANCH  18  24
ENDBRANCH  17  18
ENDBRANCH   1  17
TORSDOF 10
