REMARK  Name = 
REMARK  7 active torsions:
REMARK  status: ('A' for Active; 'I' for Inactive)
REMARK    1  A    between atoms: N_1  and  C_5
REMARK    2  A    between atoms: C_5  and  C_6
REMARK    3  A    between atoms: C_9  and  C_15
REMARK    4  A    between atoms: C_15  and  C_17
REMARK    5  A    between atoms: C_20  and  O_23
REMARK    6  A    between atoms: O_23  and  C_24
REMARK    7  A    between atoms: C_24  and  C_25
REMARK                            x       y       z     vdW  Elec       q    Type
REMARK                         _______ _______ _______ _____ _____    ______ ____
ROOT
ATOM      1  N   UNL     1       6.392  -4.213   0.000  0.00  0.00    +0.000 N 
ATOM      2  C   UNL     1       6.388  -3.388   0.000  0.00  0.00    +0.000 C 
ATOM      3  C   UNL     1       5.567  -4.208   0.000  0.00  0.00    +0.000 C 
ATOM      4  C   UNL     1       5.975  -4.925   0.000  0.00  0.00    +0.000 C 
ENDROOT
BRANCH   1   5
ATOM      5  C   UNL     1       7.104  -4.625   0.000  0.00  0.00    +0.000 C 
BRANCH   5   6
ATOM      6  C   UNL     1       7.103  -5.450   0.000  0.00  0.00    +0.000 C 
ATOM      7  O   UNL     1       7.817  -5.863   0.000  0.00  0.00    +0.000 OA
ENDBRANCH   5   6
ENDBRANCH   1   5
TORSDOF 2
REMARK  Name = 
REMARK  7 active torsions:
REMARK  status: ('A' for Active; 'I' for Inactive)
REMARK    1  A    between atoms: N_1  and  C_5
REMARK    2  A    between atoms: C_5  and  C_6
REMARK    3  A    between atoms: C_9  and  C_15
REMARK    4  A    between atoms: C_15  and  C_17
REMARK    5  A    between atoms: C_20  and  O_23
REMARK    6  A    between atoms: O_23  and  C_24
REMARK    7  A    between atoms: C_24  and  C_25
REMARK                            x       y       z     vdW  Elec       q    Type
REMARK                         _______ _______ _______ _____ _____    ______ ____
ROOT
ATOM      1  C   UNL     1       1.494  -1.035   0.000  0.00  0.00    +0.000 A 
ATOM      2  C   UNL     1       0.780  -1.446   0.000  0.00  0.00    +0.000 A 
ATOM      3  C   UNL     1       0.779  -2.270   0.000  0.00  0.00    +0.000 A 
ATOM      4  C   UNL     1       1.493  -2.684   0.000  0.00  0.00    +0.000 A 
ATOM      5  C   UNL     1       2.210  -2.267   0.000  0.00  0.00    +0.000 A 
ATOM      6  C   UNL     1       2.208  -1.444   0.000  0.00  0.00    +0.000 A 
ENDROOT
BRANCH   1   7
ATOM      7  C   UNL     1       1.495  -0.210   0.000  0.00  0.00    +0.000 C 
ATOM      8  O   UNL     1       0.781   0.203   0.000  0.00  0.00    +0.000 OA
BRANCH   7  10
ATOM      9  C   UNL     1       2.211   1.029   0.000  0.00  0.00    +0.000 A 
ATOM     10  C   UNL     1       2.210   0.202   0.000  0.00  0.00    +0.000 A 
ATOM     11  C   UNL     1       2.925  -0.211   0.000  0.00  0.00    +0.000 A 
ATOM     12  C   UNL     1       3.641   0.202   0.000  0.00  0.00    +0.000 A 
ATOM     13  C   UNL     1       3.638   1.033   0.000  0.00  0.00    +0.000 A 
ATOM     14  C   UNL     1       2.923   1.442   0.000  0.00  0.00    +0.000 A 
ATOM     15 CL   UNL     1       4.351   1.448   0.000  0.00  0.00    +0.000 Cl
ENDBRANCH   7  10
ENDBRANCH   1   7
BRANCH   4  16
ATOM     16  O   UNL     1       1.494  -3.509   0.000  0.00  0.00    +0.000 OA
BRANCH  16  17
ATOM     17  C   UNL     1       0.779  -3.921   0.000  0.00  0.00    +0.000 C 
ATOM     18  C   UNL     1       0.062  -3.508   0.000  0.00  0.00    +0.000 C 
ATOM     19  C   UNL     1       1.492  -4.333   0.000  0.00  0.00    +0.000 C 
BRANCH  17  20
ATOM     20  C   UNL     1       0.780  -4.747   0.000  0.00  0.00    +0.000 C 
ATOM     21  O   UNL     1       0.066  -5.159   0.000  0.00  0.00    +0.000 OA
ATOM     22  O   UNL     1       1.495  -5.159   0.000  0.00  0.00    +0.000 OA
ENDBRANCH  17  20
ENDBRANCH  16  17
ENDBRANCH   4  16
TORSDOF 5
