REMARK  Name = 
REMARK  3 active torsions:
REMARK  status: ('A' for Active; 'I' for Inactive)
REMARK    1  A    between atoms: S_1  and  C_2
REMARK    2  A    between atoms: C_3  and  C_4
REMARK    3  A    between atoms: N_5  and  C_9
REMARK                            x       y       z     vdW  Elec       q    Type
REMARK                         _______ _______ _______ _____ _____    ______ ____
ROOT
ATOM      1  C   UNL     1      -2.062  -0.779   0.000  0.00  0.00    +0.000 A 
ATOM      2  C   UNL     1      -0.996   1.058   0.000  0.00  0.00    +0.000 A 
ATOM      3  C   UNL     1      -1.000  -0.167   0.000  0.00  0.00    +0.000 A 
ATOM      4  C   UNL     1      -3.121  -0.167   0.000  0.00  0.00    +0.000 A 
ATOM      5  C   UNL     1      -2.058   1.675   0.000  0.00  0.00    +0.000 A 
ATOM      6  C   UNL     1      -3.125   1.062   0.000  0.00  0.00    +0.000 A 
ATOM      7 CL   UNL     1      -4.188  -0.779   0.000  0.00  0.00    +0.000 Cl
ATOM      8  O   UNL     1      -2.046   2.921   0.000  0.00  0.00    +0.000 OA
ENDROOT
BRANCH   1   9
ATOM      9  S   UNL     1      -2.083  -2.029   0.000  0.00  0.00    +0.000 S 
ATOM     10  O   UNL     1      -3.333  -2.013   0.000  0.00  0.00    +0.000 OA
ATOM     11  O   UNL     1      -0.838  -2.042   0.000  0.00  0.00    +0.000 OA
ATOM     12  N   UNL     1      -2.100  -3.275   0.000  0.00  0.00    +0.000 NA
ENDBRANCH   1   9
BRANCH   2  13
ATOM     13  C   UNL     1       0.067   1.663   0.000  0.00  0.00    +0.000 C 
ATOM     14  N   UNL     1       1.142   1.046   0.000  0.00  0.00    +0.000 NA
ATOM     15  O   UNL     1       0.079   2.883   0.000  0.00  0.00    +0.000 OA
BRANCH  14  16
ATOM     16  C   UNL     1       2.192   1.658   0.000  0.00  0.00    +0.000 A 
ATOM     17  C   UNL     1       2.212   2.883   0.000  0.00  0.00    +0.000 A 
ATOM     18  C   UNL     1       3.263   1.038   0.000  0.00  0.00    +0.000 A 
ATOM     19  C   UNL     1       4.342   2.875   0.000  0.00  0.00    +0.000 A 
ATOM     20  C   UNL     1       4.338   1.650   0.000  0.00  0.00    +0.000 A 
ATOM     21  C   UNL     1       3.279   3.496   0.000  0.00  0.00    +0.000 A 
ATOM     22  C   UNL     1       3.250  -0.204   0.000  0.00  0.00    +0.000 C 
ATOM     23  C   UNL     1       1.129   3.500   0.000  0.00  0.00    +0.000 C 
ENDBRANCH  14  16
ENDBRANCH   2  13
TORSDOF 3
