REMARK  Name = 
REMARK  2 active torsions:
REMARK  status: ('A' for Active; 'I' for Inactive)
REMARK    1  A    between atoms: S_3  and  C_5
REMARK    2  A    between atoms: C_4  and  C_7
REMARK                            x       y       z     vdW  Elec       q    Type
REMARK                         _______ _______ _______ _____ _____    ______ ____
ROOT
ATOM      1  S   UNL     1      -0.800  -3.504   0.000  0.00  0.00    +0.000 S 
ATOM      2  C   UNL     1      -0.175  -3.854   0.000  0.00  0.00    +0.000 A 
ATOM      3  C   UNL     1       1.042  -4.554   0.000  0.00  0.00    +0.000 A 
ATOM      4  C   UNL     1       1.042  -3.854   0.000  0.00  0.00    +0.000 A 
ATOM      5  N   UNL     1      -1.413  -3.854   0.000  0.00  0.00    +0.000 NA
ATOM      6  C   UNL     1       0.438  -3.504   0.000  0.00  0.00    +0.000 A 
ATOM      7  C   UNL     1      -0.175  -4.554   0.000  0.00  0.00    +0.000 A 
ATOM      8  C   UNL     1       0.429  -4.917   0.000  0.00  0.00    +0.000 A 
ATOM      9  O   UNL     1      -1.158  -2.888   0.000  0.00  0.00    +0.000 OA
ATOM     10  O   UNL     1      -0.450  -2.888   0.000  0.00  0.00    +0.000 OA
ATOM     11  N   UNL     1      -0.800  -4.917   0.000  0.00  0.00    +0.000 NA
ATOM     12  C   UNL     1      -1.413  -4.554   0.000  0.00  0.00    +0.000 C 
ENDROOT
BRANCH   4  13
ATOM     13  S   UNL     1       1.654  -3.500   0.000  0.00  0.00    +0.000 S 
ATOM     14  O   UNL     1       1.292  -2.879   0.000  0.00  0.00    +0.000 OA
ATOM     15  O   UNL     1       2.004  -2.879   0.000  0.00  0.00    +0.000 OA
ATOM     16  N   UNL     1       2.267  -3.854   0.000  0.00  0.00    +0.000 NA
ENDBRANCH   4  13
BRANCH   3  17
ATOM     17  C   UNL     1       1.654  -4.904   0.000  0.00  0.00    +0.000 C 
ATOM     18  F   UNL     1       2.267  -4.546   0.000  0.00  0.00    +0.000 F 
ATOM     19  F   UNL     1       2.004  -5.517   0.000  0.00  0.00    +0.000 F 
ATOM     20  F   UNL     1       1.292  -5.517   0.000  0.00  0.00    +0.000 F 
ENDBRANCH   3  17
TORSDOF 2
