REMARK  Name = 
REMARK  2 active torsions:
REMARK  status: ('A' for Active; 'I' for Inactive)
REMARK    1  A    between atoms: C_6  and  C_14
REMARK    2  A    between atoms: C_14  and  C_26
REMARK                            x       y       z     vdW  Elec       q    Type
REMARK                         _______ _______ _______ _____ _____    ______ ____
ROOT
ATOM      1  C   UNL     1       4.617  -3.525   0.000  0.00  0.00    +0.000 C 
ATOM      2  C   UNL     1       3.388  -4.204   0.000  0.00  0.00    +0.000 C 
ATOM      3  C   UNL     1       2.767  -4.554   0.000  0.00  0.00    +0.000 C 
ATOM      4  C   UNL     1       4.604  -4.229   0.000  0.00  0.00    +0.000 C 
ATOM      5  C   UNL     1       3.992  -4.567   0.000  0.00  0.00    +0.000 C 
ATOM      6  C   UNL     1       5.292  -3.312   0.000  0.00  0.00    +0.000 C 
ATOM      7  C   UNL     1       2.767  -5.267   0.000  0.00  0.00    +0.000 C 
ATOM      8  C   UNL     1       3.400  -3.504   0.000  0.00  0.00    +0.000 C 
ATOM      9  C   UNL     1       4.004  -3.175   0.000  0.00  0.00    +0.000 C 
ATOM     10  C   UNL     1       5.717  -3.879   0.000  0.00  0.00    +0.000 C 
ATOM     11  C   UNL     1       2.154  -4.192   0.000  0.00  0.00    +0.000 C 
ATOM     12  C   UNL     1       5.279  -4.454   0.000  0.00  0.00    +0.000 C 
ATOM     13  C   UNL     1       2.129  -5.617   0.000  0.00  0.00    +0.000 C 
ATOM     14  C   UNL     1       3.992  -5.279   0.000  0.00  0.00    +0.000 C 
ATOM     15  C   UNL     1       1.529  -4.537   0.000  0.00  0.00    +0.000 C 
ATOM     16  C   UNL     1       1.525  -5.267   0.000  0.00  0.00    +0.000 C 
ATOM     17  C   UNL     1       3.375  -5.629   0.000  0.00  0.00    +0.000 C 
ATOM     18  F   UNL     1       3.400  -4.917   0.000  0.00  0.00    +0.000 F 
ATOM     19  O   UNL     1       0.892  -5.617   0.000  0.00  0.00    +0.000 OA
ATOM     20  O   UNL     1       5.917  -2.967   0.000  0.00  0.00    +0.000 OA
ATOM     21  C   UNL     1       4.592  -2.804   0.000  0.00  0.00    +0.000 C 
ATOM     22  O   UNL     1       2.779  -3.150   0.000  0.00  0.00    +0.000 OA
ATOM     23  C   UNL     1       2.767  -3.842   0.000  0.00  0.00    +0.000 C 
ATOM     24  C   UNL     1       6.429  -3.888   0.000  0.00  0.00    +0.000 C 
ENDROOT
BRANCH   6  25
ATOM     25  C   UNL     1       5.292  -2.604   0.000  0.00  0.00    +0.000 C 
ATOM     26  O   UNL     1       4.675  -2.250   0.000  0.00  0.00    +0.000 OA
BRANCH  25  27
ATOM     27  C   UNL     1       5.904  -2.250   0.000  0.00  0.00    +0.000 C 
ATOM     28  O   UNL     1       6.529  -2.592   0.000  0.00  0.00    +0.000 OA
ENDBRANCH  25  27
ENDBRANCH   6  25
TORSDOF 2
