
     RDKit          2D

 13 12  0  0  0  0  0  0  0  0999 V2000
    6.6417   -6.0667    0.0000 P   0  0  0  0  0  0  0  0  0  0  0  0
    5.2167   -6.0667    0.0000 C   0  0  0  0  0  0  0  0  0  0  0  0
    5.9292   -6.4792    0.0000 N   0  0  0  0  0  0  0  0  0  0  0  0
    5.2167   -5.2417    0.0000 N   0  0  0  0  0  0  0  0  0  0  0  0
    4.5042   -6.4792    0.0000 N   0  0  0  0  0  0  0  0  0  0  0  0
    3.0792   -6.4792    0.0000 C   0  0  0  0  0  0  0  0  0  0  0  0
    6.8542   -6.8667    0.0000 O   0  0  0  0  0  0  0  0  0  0  0  0
    7.7917   -5.8042    0.0000 O   0  0  0  0  0  0  0  0  0  0  0  0
    3.7917   -6.0667    0.0000 C   0  0  0  0  0  0  0  0  0  0  0  0
    6.6417   -5.2417    0.0000 O   0  0  0  0  0  0  0  0  0  0  0  0
    3.0792   -7.3042    0.0000 O   0  0  0  0  0  0  0  0  0  0  0  0
    2.3542   -6.0667    0.0000 O   0  0  0  0  0  0  0  0  0  0  0  0
    4.5042   -7.3042    0.0000 C   0  0  0  0  0  0  0  0  0  0  0  0
  2  3  1  0
  3  1  1  0
  4  2  2  0
  5  2  1  0
  6  9  1  0
  7  1  1  0
  8  1  1  0
  9  5  1  0
 10  1  2  0
 11  6  1  0
 12  6  2  0
 13  5  1  0
M  END


> <chembl_id>
CHEMBL1204644

> <chembl_pref_name>
FOSFOCREATINE
