REMARK  Name = 
REMARK  9 active torsions:
REMARK  status: ('A' for Active; 'I' for Inactive)
REMARK    1  A    between atoms: C_3  and  C_6
REMARK    2  A    between atoms: C_5  and  N_7
REMARK    3  A    between atoms: N_7  and  C_9
REMARK    4  A    between atoms: C_8  and  C_9
REMARK    5  A    between atoms: C_8  and  O_16
REMARK    6  A    between atoms: C_9  and  C_13
REMARK    7  A    between atoms: C_13  and  C_17
REMARK    8  A    between atoms: O_16  and  C_24
REMARK    9  A    between atoms: C_17  and  C_20
REMARK                            x       y       z     vdW  Elec       q    Type
REMARK                         _______ _______ _______ _____ _____    ______ ____
ROOT
ATOM      1  N   UNL     1       2.350  -0.029   0.000  0.00  0.00    +0.000 N 
ATOM      2  C   UNL     1       1.538  -0.329   0.000  0.00  0.00    +0.000 C 
ATOM      3  C   UNL     1       2.867  -0.750   0.000  0.00  0.00    +0.000 C 
ATOM      4  N   UNL     1       2.692   0.746   0.000  0.00  0.00    +0.000 NA
ATOM      5  C   UNL     1       0.800   0.158   0.000  0.00  0.00    +0.000 C 
ATOM      6  O   UNL     1       1.538  -1.188   0.000  0.00  0.00    +0.000 OA
ATOM      7  C   UNL     1       3.729  -0.629   0.000  0.00  0.00    +0.000 C 
ATOM      8  C   UNL     1       2.225   1.613   0.000  0.00  0.00    +0.000 C 
ATOM      9  C   UNL     1       3.562   0.863   0.000  0.00  0.00    +0.000 C 
ATOM     10  C   UNL     1       0.713   1.058   0.000  0.00  0.00    +0.000 C 
ATOM     11  C   UNL     1       4.092   0.171   0.000  0.00  0.00    +0.000 C 
ATOM     12  C   UNL     1       1.379   1.675   0.000  0.00  0.00    +0.000 C 
ENDROOT
BRANCH   3  13
ATOM     13  C   UNL     1       2.612  -1.587   0.000  0.00  0.00    +0.000 C 
ATOM     14  O   UNL     1       1.779  -1.829   0.000  0.00  0.00    +0.000 OA
ATOM     15  O   UNL     1       3.179  -2.154   0.000  0.00  0.00    +0.000 OA
ENDBRANCH   3  13
BRANCH   5  16
ATOM     16  N   UNL     1       0.037  -0.267   0.000  0.00  0.00    +0.000 NA
BRANCH  16  17
ATOM     17  C   UNL     1      -0.733   0.196   0.000  0.00  0.00    +0.000 C 
BRANCH  17  18
ATOM     18  C   UNL     1      -0.733   1.096   0.000  0.00  0.00    +0.000 C 
ATOM     19  O   UNL     1       0.054   1.558   0.000  0.00  0.00    +0.000 OA
BRANCH  18  20
ATOM     20  O   UNL     1      -1.521   1.558   0.000  0.00  0.00    +0.000 OA
BRANCH  20  21
ATOM     21  C   UNL     1      -2.321   1.113   0.000  0.00  0.00    +0.000 C 
ATOM     22  C   UNL     1      -3.121   1.558   0.000  0.00  0.00    +0.000 C 
ENDBRANCH  20  21
ENDBRANCH  18  20
ENDBRANCH  17  18
BRANCH  17  23
ATOM     23  C   UNL     1      -1.508  -0.267   0.000  0.00  0.00    +0.000 C 
BRANCH  23  24
ATOM     24  C   UNL     1      -2.296   0.175   0.000  0.00  0.00    +0.000 C 
BRANCH  24  25
ATOM     25  C   UNL     1      -3.071  -0.279   0.000  0.00  0.00    +0.000 A 
ATOM     26  C   UNL     1      -3.071  -1.188   0.000  0.00  0.00    +0.000 A 
ATOM     27  C   UNL     1      -3.837   0.175   0.000  0.00  0.00    +0.000 A 
ATOM     28  C   UNL     1      -3.837  -1.642   0.000  0.00  0.00    +0.000 A 
ATOM     29  C   UNL     1      -4.596  -0.287   0.000  0.00  0.00    +0.000 A 
ATOM     30  C   UNL     1      -4.596  -1.188   0.000  0.00  0.00    +0.000 A 
ENDBRANCH  24  25
ENDBRANCH  23  24
ENDBRANCH  17  23
ENDBRANCH  16  17
ENDBRANCH   5  16
TORSDOF 9
