MODEL 1
REMARK VINA RESULT:     -11.2      0.000      0.000
REMARK  Name = 
REMARK  10 active torsions:
REMARK  status: ('A' for Active; 'I' for Inactive)
REMARK    1  A    between atoms: CA_2  and  C_6
REMARK    2  A    between atoms: C_3  and  CA_9
REMARK    3  A    between atoms: N_7  and  CA_9
REMARK    4  A    between atoms: N_7  and  C_11
REMARK    5  A    between atoms: C_10  and  C_11
REMARK    6  A    between atoms: C_10  and  O_17
REMARK    7  A    between atoms: C_11  and  C_15
REMARK    8  A    between atoms: C_15  and  C_18
REMARK    9  A    between atoms: O_17  and  C_23
REMARK   10  A    between atoms: C_18  and  C_19
REMARK                            x       y       z     vdW  Elec       q    Type
REMARK                         _______ _______ _______ _____ _____    ______ ____
ROOT
ATOM      1  CA  ALA A   1     140.380 113.862 164.250  0.00  0.00    +0.000 C 
ATOM      2  CB  ALA A   1     140.699 113.838 164.910  0.00  0.00    +0.000 C 
ENDROOT
BRANCH   1   5
ATOM      3  N   ALA A   1     141.152 114.935 163.913  0.00  0.00    +0.000 N 
ATOM      4  CA  ALA A   1     141.115 115.525 163.564  0.00  0.00    +0.000 C 
ATOM      5  C   ALA A   1     140.398 114.491 163.899  0.00  0.00    +0.000 C 
ATOM      6  C   ALA A   1     141.786 114.859 164.181  0.00  0.00    +0.000 C 
ATOM      7  C   ALA A   1     141.761 115.848 163.609  0.00  0.00    +0.000 C 
ATOM      8  C   ALA A   1     142.181 115.425 163.999  0.00  0.00    +0.000 C 
ATOM      9  O   ALA A   1     139.837 114.739 163.559  0.00  0.00    +0.000 OA
ATOM     10  C   ALA A   1     142.092 114.352 164.578  0.00  0.00    +0.000 C 
ATOM     11  C   ALA A   1     142.849 115.501 164.192  0.00  0.00    +0.000 C 
ATOM     12  C   ALA A   1     142.784 114.426 164.781  0.00  0.00    +0.000 C 
ATOM     13  C   ALA A   1     143.132 115.001 164.577  0.00  0.00    +0.000 C 
BRANCH   4  14
ATOM     14  C   ALA A   1     140.571 115.770 163.232  0.00  0.00    +0.000 C 
ATOM     15  O   ALA A   1     140.120 116.200 163.560  0.00  0.00    +0.000 OA
ATOM     16  OXT ALA A   1     140.464 115.604 162.600  0.00  0.00    +0.000 OA
ENDBRANCH   4  14
ENDBRANCH   1   5
BRANCH   1  17
ATOM     17  N   ALA A   1     140.072 113.287 163.984  0.00  0.00    +0.000 NA
BRANCH  17  18
ATOM     18  C   UNK A   0     139.849 112.757 164.396  0.00  0.00    +0.000 C 
BRANCH  18  19
ATOM     19  C   UNK A   0     140.136 112.118 164.295  0.00  0.00    +0.000 C 
ATOM     20  O   UNK A   0     140.444 111.775 164.805  0.00  0.00    +0.000 OA
BRANCH  19  21
ATOM     21  O   UNK A   0     140.097 111.840 163.662  0.00  0.00    +0.000 OA
BRANCH  21  22
ATOM     22  C   UNK A   0     140.421 111.225 163.506  0.00  0.00    +0.000 C 
ATOM     23  C   UNK A   0     140.351 110.955 162.866  0.00  0.00    +0.000 C 
ENDBRANCH  21  22
ENDBRANCH  19  21
ENDBRANCH  18  19
BRANCH  18  24
ATOM     24  C   UNK A   0     139.359 112.867 164.888  0.00  0.00    +0.000 C 
BRANCH  24  25
ATOM     25  C   UNK A   0     138.731 112.526 164.839  0.00  0.00    +0.000 C 
BRANCH  25  26
ATOM     26  C   UNK A   0     138.207 112.675 165.297  0.00  0.00    +0.000 A 
ATOM     27  C   UNK A   0     137.566 112.903 165.060  0.00  0.00    +0.000 A 
ATOM     28  C   UNK A   0     138.329 112.596 165.994  0.00  0.00    +0.000 A 
ATOM     29  C   UNK A   0     137.049 113.050 165.522  0.00  0.00    +0.000 A 
ATOM     30  C   UNK A   0     137.806 112.745 166.452  0.00  0.00    +0.000 A 
ATOM     31  C   UNK A   0     137.165 112.972 166.215  0.00  0.00    +0.000 A 
ENDBRANCH  25  26
ENDBRANCH  24  25
ENDBRANCH  18  24
ENDBRANCH  17  18
ENDBRANCH   1  17
TORSDOF 10
ENDMDL
MODEL 2
REMARK VINA RESULT:     -10.5      1.810      3.481
REMARK  Name = 
REMARK  10 active torsions:
REMARK  status: ('A' for Active; 'I' for Inactive)
REMARK    1  A    between atoms: CA_2  and  C_6
REMARK    2  A    between atoms: C_3  and  CA_9
REMARK    3  A    between atoms: N_7  and  CA_9
REMARK    4  A    between atoms: N_7  and  C_11
REMARK    5  A    between atoms: C_10  and  C_11
REMARK    6  A    between atoms: C_10  and  O_17
REMARK    7  A    between atoms: C_11  and  C_15
REMARK    8  A    between atoms: C_15  and  C_18
REMARK    9  A    between atoms: O_17  and  C_23
REMARK   10  A    between atoms: C_18  and  C_19
REMARK                            x       y       z     vdW  Elec       q    Type
REMARK                         _______ _______ _______ _____ _____    ______ ____
ROOT
ATOM      1  CA  ALA A   1     140.067 113.384 162.679  0.00  0.00    +0.000 C 
ATOM      2  CB  ALA A   1     140.553 113.069 163.129  0.00  0.00    +0.000 C 
ENDROOT
BRANCH   1   5
ATOM      3  N   ALA A   1     140.201 112.535 161.620  0.00  0.00    +0.000 N 
ATOM      4  CA  ALA A   1     140.326 112.546 160.945  0.00  0.00    +0.000 C 
ATOM      5  C   ALA A   1     140.193 113.337 161.971  0.00  0.00    +0.000 C 
ATOM      6  C   ALA A   1     140.116 111.882 161.833  0.00  0.00    +0.000 C 
ATOM      7  C   ALA A   1     140.321 111.863 160.709  0.00  0.00    +0.000 C 
ATOM      8  C   ALA A   1     140.188 111.446 161.272  0.00  0.00    +0.000 C 
ATOM      9  O   ALA A   1     140.306 113.906 161.578  0.00  0.00    +0.000 OA
ATOM     10  C   ALA A   1     139.978 111.588 162.467  0.00  0.00    +0.000 C 
ATOM     11  C   ALA A   1     140.130 110.751 161.319  0.00  0.00    +0.000 C 
ATOM     12  C   ALA A   1     139.916 110.868 162.522  0.00  0.00    +0.000 C 
ATOM     13  C   ALA A   1     139.996 110.481 161.941  0.00  0.00    +0.000 C 
BRANCH   4  14
ATOM     14  C   ALA A   1     140.437 113.099 160.559  0.00  0.00    +0.000 C 
ATOM     15  O   ALA A   1     141.091 113.342 160.468  0.00  0.00    +0.000 OA
ATOM     16  OXT ALA A   1     139.929 113.409 160.268  0.00  0.00    +0.000 OA
ENDBRANCH   4  14
ENDBRANCH   1   5
BRANCH   1  17
ATOM     17  N   ALA A   1     139.504 113.716 162.943  0.00  0.00    +0.000 NA
BRANCH  17  18
ATOM     18  C   UNK A   0     139.514 114.022 163.580  0.00  0.00    +0.000 C 
BRANCH  18  19
ATOM     19  C   UNK A   0     139.752 114.687 163.623  0.00  0.00    +0.000 C 
ATOM     20  O   UNK A   0     140.383 114.831 163.855  0.00  0.00    +0.000 OA
BRANCH  19  21
ATOM     21  O   UNK A   0     139.329 115.198 163.424  0.00  0.00    +0.000 OA
BRANCH  21  22
ATOM     22  C   UNK A   0     139.503 115.882 163.516  0.00  0.00    +0.000 C 
ATOM     23  C   UNK A   0     139.038 116.378 163.356  0.00  0.00    +0.000 C 
ENDBRANCH  21  22
ENDBRANCH  19  21
ENDBRANCH  18  19
BRANCH  18  24
ATOM     24  C   UNK A   0     139.293 113.673 164.149  0.00  0.00    +0.000 C 
BRANCH  24  25
ATOM     25  C   UNK A   0     138.599 113.690 164.324  0.00  0.00    +0.000 C 
BRANCH  25  26
ATOM     26  C   UNK A   0     138.365 113.330 164.891  0.00  0.00    +0.000 A 
ATOM     27  C   UNK A   0     138.801 113.197 165.448  0.00  0.00    +0.000 A 
ATOM     28  C   UNK A   0     137.689 113.103 164.897  0.00  0.00    +0.000 A 
ATOM     29  C   UNK A   0     138.562 112.837 166.009  0.00  0.00    +0.000 A 
ATOM     30  C   UNK A   0     137.455 112.743 165.464  0.00  0.00    +0.000 A 
ATOM     31  C   UNK A   0     137.892 112.610 166.021  0.00  0.00    +0.000 A 
ENDBRANCH  25  26
ENDBRANCH  24  25
ENDBRANCH  18  24
ENDBRANCH  17  18
ENDBRANCH   1  17
TORSDOF 10
ENDMDL
MODEL 3
REMARK VINA RESULT:     -10.4      2.172      3.622
REMARK  Name = 
REMARK  10 active torsions:
REMARK  status: ('A' for Active; 'I' for Inactive)
REMARK    1  A    between atoms: CA_2  and  C_6
REMARK    2  A    between atoms: C_3  and  CA_9
REMARK    3  A    between atoms: N_7  and  CA_9
REMARK    4  A    between atoms: N_7  and  C_11
REMARK    5  A    between atoms: C_10  and  C_11
REMARK    6  A    between atoms: C_10  and  O_17
REMARK    7  A    between atoms: C_11  and  C_15
REMARK    8  A    between atoms: C_15  and  C_18
REMARK    9  A    between atoms: O_17  and  C_23
REMARK   10  A    between atoms: C_18  and  C_19
REMARK                            x       y       z     vdW  Elec       q    Type
REMARK                         _______ _______ _______ _____ _____    ______ ____
ROOT
ATOM      1  CA  ALA A   1     140.353 113.704 162.312  0.00  0.00    +0.000 C 
ATOM      2  CB  ALA A   1     139.730 114.070 162.185  0.00  0.00    +0.000 C 
ENDROOT
BRANCH   1   5
ATOM      3  N   ALA A   1     140.954 114.325 163.367  0.00  0.00    +0.000 N 
ATOM      4  CA  ALA A   1     141.130 114.208 164.020  0.00  0.00    +0.000 C 
ATOM      5  C   ALA A   1     140.560 113.636 162.999  0.00  0.00    +0.000 C 
ATOM      6  C   ALA A   1     141.142 114.966 163.184  0.00  0.00    +0.000 C 
ATOM      7  C   ALA A   1     141.449 114.806 164.273  0.00  0.00    +0.000 C 
ATOM      8  C   ALA A   1     141.455 115.282 163.742  0.00  0.00    +0.000 C 
ATOM      9  O   ALA A   1     140.451 113.045 163.360  0.00  0.00    +0.000 OA
ATOM     10  C   ALA A   1     141.082 115.339 162.580  0.00  0.00    +0.000 C 
ATOM     11  C   ALA A   1     141.703 115.936 163.721  0.00  0.00    +0.000 C 
ATOM     12  C   ALA A   1     141.337 116.017 162.552  0.00  0.00    +0.000 C 
ATOM     13  C   ALA A   1     141.638 116.285 163.128  0.00  0.00    +0.000 C 
BRANCH   4  14
ATOM     14  C   ALA A   1     141.026 113.634 164.375  0.00  0.00    +0.000 C 
ATOM     15  O   ALA A   1     140.424 113.539 164.727  0.00  0.00    +0.000 OA
ATOM     16  OXT ALA A   1     141.491 113.163 164.389  0.00  0.00    +0.000 OA
ENDBRANCH   4  14
ENDBRANCH   1   5
BRANCH   1  17
ATOM     17  N   ALA A   1     140.722 113.435 161.776  0.00  0.00    +0.000 NA
BRANCH  17  18
ATOM     18  C   UNK A   0     140.416 113.058 161.263  0.00  0.00    +0.000 C 
BRANCH  18  19
ATOM     19  C   UNK A   0     140.324 113.368 160.634  0.00  0.00    +0.000 C 
ATOM     20  O   UNK A   0     139.699 113.526 160.396  0.00  0.00    +0.000 OA
BRANCH  19  21
ATOM     21  O   UNK A   0     140.887 113.512 160.256  0.00  0.00    +0.000 OA
BRANCH  21  22
ATOM     22  C   UNK A   0     140.836 113.823 159.617  0.00  0.00    +0.000 C 
ATOM     23  C   UNK A   0     141.418 113.957 159.256  0.00  0.00    +0.000 C 
ENDBRANCH  21  22
ENDBRANCH  19  21
ENDBRANCH  18  19
BRANCH  18  24
ATOM     24  C   UNK A   0     140.212 112.394 161.378  0.00  0.00    +0.000 C 
BRANCH  24  25
ATOM     25  C   UNK A   0     140.554 111.860 161.046  0.00  0.00    +0.000 C 
BRANCH  25  26
ATOM     26  C   UNK A   0     140.423 111.185 161.229  0.00  0.00    +0.000 A 
ATOM     27  C   UNK A   0     139.747 110.941 161.276  0.00  0.00    +0.000 A 
ATOM     28  C   UNK A   0     140.974 110.754 161.364  0.00  0.00    +0.000 A 
ATOM     29  C   UNK A   0     139.624 110.268 161.459  0.00  0.00    +0.000 A 
ATOM     30  C   UNK A   0     140.844 110.079 161.547  0.00  0.00    +0.000 A 
ATOM     31  C   UNK A   0     140.168 109.836 161.595  0.00  0.00    +0.000 A 
ENDBRANCH  25  26
ENDBRANCH  24  25
ENDBRANCH  18  24
ENDBRANCH  17  18
ENDBRANCH   1  17
TORSDOF 10
ENDMDL
MODEL 4
REMARK VINA RESULT:     -10.2      2.010      3.469
REMARK  Name = 
REMARK  10 active torsions:
REMARK  status: ('A' for Active; 'I' for Inactive)
REMARK    1  A    between atoms: CA_2  and  C_6
REMARK    2  A    between atoms: C_3  and  CA_9
REMARK    3  A    between atoms: N_7  and  CA_9
REMARK    4  A    between atoms: N_7  and  C_11
REMARK    5  A    between atoms: C_10  and  C_11
REMARK    6  A    between atoms: C_10  and  O_17
REMARK    7  A    between atoms: C_11  and  C_15
REMARK    8  A    between atoms: C_15  and  C_18
REMARK    9  A    between atoms: O_17  and  C_23
REMARK   10  A    between atoms: C_18  and  C_19
REMARK                            x       y       z     vdW  Elec       q    Type
REMARK                         _______ _______ _______ _____ _____    ______ ____
ROOT
ATOM      1  CA  ALA A   1     139.796 113.783 162.984  0.00  0.00    +0.000 C 
ATOM      2  CB  ALA A   1     140.367 113.696 163.437  0.00  0.00    +0.000 C 
ENDROOT
BRANCH   1   5
ATOM      3  N   ALA A   1     140.171 113.137 161.843  0.00  0.00    +0.000 N 
ATOM      4  CA  ALA A   1     140.298 113.263 161.181  0.00  0.00    +0.000 C 
ATOM      5  C   ALA A   1     139.941 113.858 162.282  0.00  0.00    +0.000 C 
ATOM      6  C   ALA A   1     140.262 112.464 161.976  0.00  0.00    +0.000 C 
ATOM      7  C   ALA A   1     140.481 112.637 160.868  0.00  0.00    +0.000 C 
ATOM      8  C   ALA A   1     140.458 112.135 161.373  0.00  0.00    +0.000 C 
ATOM      9  O   ALA A   1     139.901 114.481 161.962  0.00  0.00    +0.000 OA
ATOM     10  C   ALA A   1     140.200 112.068 162.566  0.00  0.00    +0.000 C 
ATOM     11  C   ALA A   1     140.589 111.449 161.339  0.00  0.00    +0.000 C 
ATOM     12  C   ALA A   1     140.335 111.357 162.536  0.00  0.00    +0.000 C 
ATOM     13  C   ALA A   1     140.525 111.079 161.919  0.00  0.00    +0.000 C 
BRANCH   4  14
ATOM     14  C   ALA A   1     140.260 113.868 160.865  0.00  0.00    +0.000 C 
ATOM     15  O   ALA A   1     140.819 114.296 160.852  0.00  0.00    +0.000 OA
ATOM     16  OXT ALA A   1     139.697 114.055 160.570  0.00  0.00    +0.000 OA
ENDBRANCH   4  14
ENDBRANCH   1   5
BRANCH   1  17
ATOM     17  N   ALA A   1     139.140 113.792 163.240  0.00  0.00    +0.000 NA
BRANCH  17  18
ATOM     18  C   UNK A   0     138.972 114.143 163.830  0.00  0.00    +0.000 C 
BRANCH  18  19
ATOM     19  C   UNK A   0     138.853 113.765 164.417  0.00  0.00    +0.000 C 
ATOM     20  O   UNK A   0     139.294 113.765 164.944  0.00  0.00    +0.000 OA
BRANCH  19  21
ATOM     21  O   UNK A   0     138.271 113.389 164.448  0.00  0.00    +0.000 OA
BRANCH  21  22
ATOM     22  C   UNK A   0     138.115 112.995 165.020  0.00  0.00    +0.000 C 
ATOM     23  C   UNK A   0     137.501 112.664 165.049  0.00  0.00    +0.000 C 
ENDBRANCH  21  22
ENDBRANCH  19  21
ENDBRANCH  18  19
BRANCH  18  24
ATOM     24  C   UNK A   0     138.927 114.845 163.830  0.00  0.00    +0.000 C 
BRANCH  24  25
ATOM     25  C   UNK A   0     138.296 115.155 163.964  0.00  0.00    +0.000 C 
BRANCH  25  26
ATOM     26  C   UNK A   0     138.228 115.862 163.913  0.00  0.00    +0.000 A 
ATOM     27  C   UNK A   0     137.880 116.158 163.356  0.00  0.00    +0.000 A 
ATOM     28  C   UNK A   0     138.511 116.271 164.423  0.00  0.00    +0.000 A 
ATOM     29  C   UNK A   0     137.816 116.862 163.311  0.00  0.00    +0.000 A 
ATOM     30  C   UNK A   0     138.443 116.977 164.371  0.00  0.00    +0.000 A 
ATOM     31  C   UNK A   0     138.095 117.273 163.815  0.00  0.00    +0.000 A 
ENDBRANCH  25  26
ENDBRANCH  24  25
ENDBRANCH  18  24
ENDBRANCH  17  18
ENDBRANCH   1  17
TORSDOF 10
ENDMDL
MODEL 5
REMARK VINA RESULT:     -10.2      2.029      2.791
REMARK  Name = 
REMARK  10 active torsions:
REMARK  status: ('A' for Active; 'I' for Inactive)
REMARK    1  A    between atoms: CA_2  and  C_6
REMARK    2  A    between atoms: C_3  and  CA_9
REMARK    3  A    between atoms: N_7  and  CA_9
REMARK    4  A    between atoms: N_7  and  C_11
REMARK    5  A    between atoms: C_10  and  C_11
REMARK    6  A    between atoms: C_10  and  O_17
REMARK    7  A    between atoms: C_11  and  C_15
REMARK    8  A    between atoms: C_15  and  C_18
REMARK    9  A    between atoms: O_17  and  C_23
REMARK   10  A    between atoms: C_18  and  C_19
REMARK                            x       y       z     vdW  Elec       q    Type
REMARK                         _______ _______ _______ _____ _____    ______ ____
ROOT
ATOM      1  CA  ALA A   1     140.218 113.302 162.265  0.00  0.00    +0.000 C 
ATOM      2  CB  ALA A   1     139.549 113.182 161.987  0.00  0.00    +0.000 C 
ENDROOT
BRANCH   1   5
ATOM      3  N   ALA A   1     140.666 114.376 161.554  0.00  0.00    +0.000 N 
ATOM      4  CA  ALA A   1     140.870 115.024 161.647  0.00  0.00    +0.000 C 
ATOM      5  C   ALA A   1     140.440 113.986 162.304  0.00  0.00    +0.000 C 
ATOM      6  C   ALA A   1     140.698 114.214 160.882  0.00  0.00    +0.000 C 
ATOM      7  C   ALA A   1     141.043 115.297 160.999  0.00  0.00    +0.000 C 
ATOM      8  C   ALA A   1     140.933 114.782 160.519  0.00  0.00    +0.000 C 
ATOM      9  O   ALA A   1     140.476 114.327 162.916  0.00  0.00    +0.000 OA
ATOM     10  C   ALA A   1     140.548 113.622 160.513  0.00  0.00    +0.000 C 
ATOM     11  C   ALA A   1     141.021 114.781 159.825  0.00  0.00    +0.000 C 
ATOM     12  C   ALA A   1     140.637 113.616 159.794  0.00  0.00    +0.000 C 
ATOM     13  C   ALA A   1     140.872 114.200 159.482  0.00  0.00    +0.000 C 
BRANCH   4  14
ATOM     14  C   ALA A   1     140.906 115.360 162.241  0.00  0.00    +0.000 C 
ATOM     15  O   ALA A   1     140.338 115.689 162.496  0.00  0.00    +0.000 OA
ATOM     16  OXT ALA A   1     141.474 115.379 162.579  0.00  0.00    +0.000 OA
ENDBRANCH   4  14
ENDBRANCH   1   5
BRANCH   1  17
ATOM     17  N   ALA A   1     140.613 112.760 162.480  0.00  0.00    +0.000 NA
BRANCH  17  18
ATOM     18  C   UNK A   0     140.340 112.215 162.838  0.00  0.00    +0.000 C 
BRANCH  18  19
ATOM     19  C   UNK A   0     140.300 111.590 162.508  0.00  0.00    +0.000 C 
ATOM     20  O   UNK A   0     139.696 111.303 162.349  0.00  0.00    +0.000 OA
BRANCH  19  21
ATOM     21  O   UNK A   0     140.892 111.269 162.347  0.00  0.00    +0.000 OA
BRANCH  21  22
ATOM     22  C   UNK A   0     140.894 110.632 162.029  0.00  0.00    +0.000 C 
ATOM     23  C   UNK A   0     141.502 110.348 161.836  0.00  0.00    +0.000 C 
ENDBRANCH  21  22
ENDBRANCH  19  21
ENDBRANCH  18  19
BRANCH  18  24
ATOM     24  C   UNK A   0     140.117 112.296 163.500  0.00  0.00    +0.000 C 
BRANCH  24  25
ATOM     25  C   UNK A   0     140.464 111.962 164.030  0.00  0.00    +0.000 C 
BRANCH  25  26
ATOM     26  C   UNK A   0     140.285 112.087 164.707  0.00  0.00    +0.000 A 
ATOM     27  C   UNK A   0     139.604 112.009 164.928  0.00  0.00    +0.000 A 
ATOM     28  C   UNK A   0     140.793 112.291 165.164  0.00  0.00    +0.000 A 
ATOM     29  C   UNK A   0     139.433 112.135 165.604  0.00  0.00    +0.000 A 
ATOM     30  C   UNK A   0     140.614 112.415 165.841  0.00  0.00    +0.000 A 
ATOM     31  C   UNK A   0     139.933 112.338 166.061  0.00  0.00    +0.000 A 
ENDBRANCH  25  26
ENDBRANCH  24  25
ENDBRANCH  18  24
ENDBRANCH  17  18
ENDBRANCH   1  17
TORSDOF 10
ENDMDL
MODEL 6
REMARK VINA RESULT:     -10.0     31.367     32.900
REMARK  Name = 
REMARK  10 active torsions:
REMARK  status: ('A' for Active; 'I' for Inactive)
REMARK    1  A    between atoms: CA_2  and  C_6
REMARK    2  A    between atoms: C_3  and  CA_9
REMARK    3  A    between atoms: N_7  and  CA_9
REMARK    4  A    between atoms: N_7  and  C_11
REMARK    5  A    between atoms: C_10  and  C_11
REMARK    6  A    between atoms: C_10  and  O_17
REMARK    7  A    between atoms: C_11  and  C_15
REMARK    8  A    between atoms: C_15  and  C_18
REMARK    9  A    between atoms: O_17  and  C_23
REMARK   10  A    between atoms: C_18  and  C_19
REMARK                            x       y       z     vdW  Elec       q    Type
REMARK                         _______ _______ _______ _____ _____    ______ ____
ROOT
ATOM      1  CA  ALA A   1     125.382 111.546 193.383  0.00  0.00    +0.000 C 
ATOM      2  CB  ALA A   1     124.973 111.990 193.801  0.00  0.00    +0.000 C 
ENDROOT
BRANCH   1   5
ATOM      3  N   ALA A   1     124.782 111.907 192.213  0.00  0.00    +0.000 N 
ATOM      4  CA  ALA A   1     124.512 111.627 191.648  0.00  0.00    +0.000 C 
ATOM      5  C   ALA A   1     125.087 111.306 192.771  0.00  0.00    +0.000 C 
ATOM      6  C   ALA A   1     124.733 112.597 192.179  0.00  0.00    +0.000 C 
ATOM      7  C   ALA A   1     124.277 112.164 191.225  0.00  0.00    +0.000 C 
ATOM      8  C   ALA A   1     124.418 112.775 191.564  0.00  0.00    +0.000 C 
ATOM      9  O   ALA A   1     125.046 110.622 192.626  0.00  0.00    +0.000 OA
ATOM     10  C   ALA A   1     124.929 113.123 192.619  0.00  0.00    +0.000 C 
ATOM     11  C   ALA A   1     124.295 113.438 191.377  0.00  0.00    +0.000 C 
ATOM     12  C   ALA A   1     124.803 113.812 192.430  0.00  0.00    +0.000 C 
ATOM     13  C   ALA A   1     124.490 113.937 191.813  0.00  0.00    +0.000 C 
BRANCH   4  14
ATOM     14  C   ALA A   1     124.470 110.960 191.503  0.00  0.00    +0.000 C 
ATOM     15  O   ALA A   1     123.914 110.586 191.719  0.00  0.00    +0.000 OA
ATOM     16  OXT ALA A   1     124.951 110.663 191.158  0.00  0.00    +0.000 OA
ENDBRANCH   4  14
ENDBRANCH   1   5
BRANCH   1  17
ATOM     17  N   ALA A   1     126.034 111.371 193.586  0.00  0.00    +0.000 NA
BRANCH  17  18
ATOM     18  C   UNK A   0     126.227 111.369 194.266  0.00  0.00    +0.000 C 
BRANCH  18  19
ATOM     19  C   UNK A   0     126.773 111.778 194.455  0.00  0.00    +0.000 C 
ATOM     20  O   UNK A   0     126.703 112.288 194.910  0.00  0.00    +0.000 OA
BRANCH  19  21
ATOM     21  O   UNK A   0     127.390 111.651 194.166  0.00  0.00    +0.000 OA
BRANCH  21  22
ATOM     22  C   UNK A   0     127.953 112.069 194.292  0.00  0.00    +0.000 C 
ATOM     23  C   UNK A   0     128.567 111.913 193.999  0.00  0.00    +0.000 C 
ENDBRANCH  21  22
ENDBRANCH  19  21
ENDBRANCH  18  19
BRANCH  18  24
ATOM     24  C   UNK A   0     125.885 110.973 194.735  0.00  0.00    +0.000 C 
BRANCH  24  25
ATOM     25  C   UNK A   0     126.257 110.522 195.150  0.00  0.00    +0.000 C 
BRANCH  25  26
ATOM     26  C   UNK A   0     125.915 110.064 195.574  0.00  0.00    +0.000 A 
ATOM     27  C   UNK A   0     125.458 110.301 196.078  0.00  0.00    +0.000 A 
ATOM     28  C   UNK A   0     126.034 109.367 195.491  0.00  0.00    +0.000 A 
ATOM     29  C   UNK A   0     125.121 109.839 196.496  0.00  0.00    +0.000 A 
ATOM     30  C   UNK A   0     125.692 108.909 195.915  0.00  0.00    +0.000 A 
ATOM     31  C   UNK A   0     125.235 109.146 196.418  0.00  0.00    +0.000 A 
ENDBRANCH  25  26
ENDBRANCH  24  25
ENDBRANCH  18  24
ENDBRANCH  17  18
ENDBRANCH   1  17
TORSDOF 10
ENDMDL
MODEL 7
REMARK VINA RESULT:      -9.7      1.775      3.497
REMARK  Name = 
REMARK  10 active torsions:
REMARK  status: ('A' for Active; 'I' for Inactive)
REMARK    1  A    between atoms: CA_2  and  C_6
REMARK    2  A    between atoms: C_3  and  CA_9
REMARK    3  A    between atoms: N_7  and  CA_9
REMARK    4  A    between atoms: N_7  and  C_11
REMARK    5  A    between atoms: C_10  and  C_11
REMARK    6  A    between atoms: C_10  and  O_17
REMARK    7  A    between atoms: C_11  and  C_15
REMARK    8  A    between atoms: C_15  and  C_18
REMARK    9  A    between atoms: O_17  and  C_23
REMARK   10  A    between atoms: C_18  and  C_19
REMARK                            x       y       z     vdW  Elec       q    Type
REMARK                         _______ _______ _______ _____ _____    ______ ____
ROOT
ATOM      1  CA  ALA A   1     140.452 113.308 163.105  0.00  0.00    +0.000 C 
ATOM      2  CB  ALA A   1     140.800 112.699 162.889  0.00  0.00    +0.000 C 
ENDROOT
BRANCH   1   5
ATOM      3  N   ALA A   1     140.335 113.643 161.788  0.00  0.00    +0.000 N 
ATOM      4  CA  ALA A   1     140.308 114.196 161.383  0.00  0.00    +0.000 C 
ATOM      5  C   ALA A   1     140.419 113.852 162.634  0.00  0.00    +0.000 C 
ATOM      6  C   ALA A   1     140.287 113.069 161.405  0.00  0.00    +0.000 C 
ATOM      7  C   ALA A   1     140.239 113.967 160.700  0.00  0.00    +0.000 C 
ATOM      8  C   ALA A   1     140.226 113.255 160.718  0.00  0.00    +0.000 C 
ATOM      9  O   ALA A   1     140.452 114.521 162.841  0.00  0.00    +0.000 OA
ATOM     10  C   ALA A   1     140.288 112.373 161.563  0.00  0.00    +0.000 C 
ATOM     11  C   ALA A   1     140.167 112.788 160.201  0.00  0.00    +0.000 C 
ATOM     12  C   ALA A   1     140.227 111.885 161.030  0.00  0.00    +0.000 C 
ATOM     13  C   ALA A   1     140.170 112.118 160.370  0.00  0.00    +0.000 C 
BRANCH   4  14
ATOM     14  C   ALA A   1     140.340 114.850 161.581  0.00  0.00    +0.000 C 
ATOM     15  O   ALA A   1     140.961 115.180 161.613  0.00  0.00    +0.000 OA
ATOM     16  OXT ALA A   1     139.787 115.176 161.743  0.00  0.00    +0.000 OA
ENDBRANCH   4  14
ENDBRANCH   1   5
BRANCH   1  17
ATOM     17  N   ALA A   1     140.169 113.345 163.749  0.00  0.00    +0.000 NA
BRANCH  17  18
ATOM     18  C   UNK A   0     140.387 112.931 164.278  0.00  0.00    +0.000 C 
BRANCH  18  19
ATOM     19  C   UNK A   0     139.902 112.536 164.610  0.00  0.00    +0.000 C 
ATOM     20  O   UNK A   0     139.942 111.850 164.623  0.00  0.00    +0.000 OA
BRANCH  19  21
ATOM     21  O   UNK A   0     139.378 112.861 164.926  0.00  0.00    +0.000 OA
BRANCH  21  22
ATOM     22  C   UNK A   0     138.840 112.499 165.220  0.00  0.00    +0.000 C 
ATOM     23  C   UNK A   0     138.335 112.848 165.553  0.00  0.00    +0.000 C 
ENDBRANCH  21  22
ENDBRANCH  19  21
ENDBRANCH  18  19
BRANCH  18  24
ATOM     24  C   UNK A   0     141.064 112.916 164.467  0.00  0.00    +0.000 C 
BRANCH  24  25
ATOM     25  C   UNK A   0     141.245 113.085 165.139  0.00  0.00    +0.000 C 
BRANCH  25  26
ATOM     26  C   UNK A   0     141.931 113.124 165.325  0.00  0.00    +0.000 A 
ATOM     27  C   UNK A   0     142.279 113.754 165.311  0.00  0.00    +0.000 A 
ATOM     28  C   UNK A   0     142.266 112.528 165.524  0.00  0.00    +0.000 A 
ATOM     29  C   UNK A   0     142.962 113.787 165.497  0.00  0.00    +0.000 A 
ATOM     30  C   UNK A   0     142.952 112.568 165.710  0.00  0.00    +0.000 A 
ATOM     31  C   UNK A   0     143.300 113.198 165.696  0.00  0.00    +0.000 A 
ENDBRANCH  25  26
ENDBRANCH  24  25
ENDBRANCH  18  24
ENDBRANCH  17  18
ENDBRANCH   1  17
TORSDOF 10
ENDMDL
MODEL 8
REMARK VINA RESULT:      -9.7     31.431     33.956
REMARK  Name = 
REMARK  10 active torsions:
REMARK  status: ('A' for Active; 'I' for Inactive)
REMARK    1  A    between atoms: CA_2  and  C_6
REMARK    2  A    between atoms: C_3  and  CA_9
REMARK    3  A    between atoms: N_7  and  CA_9
REMARK    4  A    between atoms: N_7  and  C_11
REMARK    5  A    between atoms: C_10  and  C_11
REMARK    6  A    between atoms: C_10  and  O_17
REMARK    7  A    between atoms: C_11  and  C_15
REMARK    8  A    between atoms: C_15  and  C_18
REMARK    9  A    between atoms: O_17  and  C_23
REMARK   10  A    between atoms: C_18  and  C_19
REMARK                            x       y       z     vdW  Elec       q    Type
REMARK                         _______ _______ _______ _____ _____    ______ ____
ROOT
ATOM      1  CA  ALA A   1     126.792 109.620 195.226  0.00  0.00    +0.000 C 
ATOM      2  CB  ALA A   1     126.783 110.198 195.679  0.00  0.00    +0.000 C 
ENDROOT
BRANCH   1   5
ATOM      3  N   ALA A   1     126.234 108.724 196.090  0.00  0.00    +0.000 N 
ATOM      4  CA  ALA A   1     126.344 108.096 196.345  0.00  0.00    +0.000 C 
ATOM      5  C   ALA A   1     126.857 108.968 195.525  0.00  0.00    +0.000 C 
ATOM      6  C   ALA A   1     125.653 108.988 196.356  0.00  0.00    +0.000 C 
ATOM      7  C   ALA A   1     125.803 107.947 196.802  0.00  0.00    +0.000 C 
ATOM      8  C   ALA A   1     125.369 108.512 196.806  0.00  0.00    +0.000 C 
ATOM      9  O   ALA A   1     127.395 108.545 195.373  0.00  0.00    +0.000 OA
ATOM     10  C   ALA A   1     125.311 109.608 196.268  0.00  0.00    +0.000 C 
ATOM     11  C   ALA A   1     124.777 108.627 197.160  0.00  0.00    +0.000 C 
ATOM     12  C   ALA A   1     124.696 109.732 196.632  0.00  0.00    +0.000 C 
ATOM     13  C   ALA A   1     124.457 109.232 197.063  0.00  0.00    +0.000 C 
BRANCH   4  14
ATOM     14  C   ALA A   1     126.866 107.681 196.199  0.00  0.00    +0.000 C 
ATOM     15  O   ALA A   1     126.810 107.212 195.677  0.00  0.00    +0.000 OA
ATOM     16  OXT ALA A   1     127.428 107.718 196.547  0.00  0.00    +0.000 OA
ENDBRANCH   4  14
ENDBRANCH   1   5
BRANCH   1  17
ATOM     17  N   ALA A   1     126.738 109.716 194.530  0.00  0.00    +0.000 NA
BRANCH  17  18
ATOM     18  C   UNK A   0     126.988 110.295 194.211  0.00  0.00    +0.000 C 
BRANCH  18  19
ATOM     19  C   UNK A   0     126.522 110.728 193.900  0.00  0.00    +0.000 C 
ATOM     20  O   UNK A   0     126.470 111.390 194.077  0.00  0.00    +0.000 OA
BRANCH  19  21
ATOM     21  O   UNK A   0     126.114 110.465 193.406  0.00  0.00    +0.000 OA
BRANCH  21  22
ATOM     22  C   UNK A   0     125.606 110.858 193.097  0.00  0.00    +0.000 C 
ATOM     23  C   UNK A   0     125.193 110.564 192.617  0.00  0.00    +0.000 C 
ENDBRANCH  21  22
ENDBRANCH  19  21
ENDBRANCH  18  19
BRANCH  18  24
ATOM     24  C   UNK A   0     127.678 110.432 194.205  0.00  0.00    +0.000 C 
BRANCH  24  25
ATOM     25  C   UNK A   0     128.038 110.391 193.587  0.00  0.00    +0.000 C 
BRANCH  25  26
ATOM     26  C   UNK A   0     128.739 110.510 193.575  0.00  0.00    +0.000 A 
ATOM     27  C   UNK A   0     129.013 111.121 193.842  0.00  0.00    +0.000 A 
ATOM     28  C   UNK A   0     129.166 110.014 193.293  0.00  0.00    +0.000 A 
ATOM     29  C   UNK A   0     129.712 111.233 193.826  0.00  0.00    +0.000 A 
ATOM     30  C   UNK A   0     129.867 110.134 193.280  0.00  0.00    +0.000 A 
ATOM     31  C   UNK A   0     130.141 110.744 193.547  0.00  0.00    +0.000 A 
ENDBRANCH  25  26
ENDBRANCH  24  25
ENDBRANCH  18  24
ENDBRANCH  17  18
ENDBRANCH   1  17
TORSDOF 10
ENDMDL
MODEL 9
REMARK VINA RESULT:      -9.6     60.667     61.542
REMARK  Name = 
REMARK  10 active torsions:
REMARK  status: ('A' for Active; 'I' for Inactive)
REMARK    1  A    between atoms: CA_2  and  C_6
REMARK    2  A    between atoms: C_3  and  CA_9
REMARK    3  A    between atoms: N_7  and  CA_9
REMARK    4  A    between atoms: N_7  and  C_11
REMARK    5  A    between atoms: C_10  and  C_11
REMARK    6  A    between atoms: C_10  and  O_17
REMARK    7  A    between atoms: C_11  and  C_15
REMARK    8  A    between atoms: C_15  and  C_18
REMARK    9  A    between atoms: O_17  and  C_23
REMARK   10  A    between atoms: C_18  and  C_19
REMARK                            x       y       z     vdW  Elec       q    Type
REMARK                         _______ _______ _______ _____ _____    ______ ____
ROOT
ATOM      1  CA  ALA A   1     101.377 138.718 124.279  0.00  0.00    +0.000 C 
ATOM      2  CB  ALA A   1     101.530 138.912 124.970  0.00  0.00    +0.000 C 
ENDROOT
BRANCH   1   5
ATOM      3  N   ALA A   1     102.374 139.259 123.521  0.00  0.00    +0.000 N 
ATOM      4  CA  ALA A   1     102.894 139.069 123.116  0.00  0.00    +0.000 C 
ATOM      5  C   ALA A   1     101.936 138.575 123.846  0.00  0.00    +0.000 C 
ATOM      6  C   ALA A   1     102.344 139.950 123.556  0.00  0.00    +0.000 C 
ATOM      7  C   ALA A   1     103.219 139.670 122.877  0.00  0.00    +0.000 C 
ATOM      8  C   ALA A   1     102.869 140.224 123.157  0.00  0.00    +0.000 C 
ATOM      9  O   ALA A   1     102.122 137.918 123.690  0.00  0.00    +0.000 OA
ATOM     10  C   ALA A   1     101.913 140.405 123.897  0.00  0.00    +0.000 C 
ATOM     11  C   ALA A   1     102.976 140.911 123.087  0.00  0.00    +0.000 C 
ATOM     12  C   ALA A   1     102.019 141.118 123.828  0.00  0.00    +0.000 C 
ATOM     13  C   ALA A   1     102.550 141.339 123.424  0.00  0.00    +0.000 C 
BRANCH   4  14
ATOM     14  C   ALA A   1     103.079 138.430 122.962  0.00  0.00    +0.000 C 
ATOM     15  O   ALA A   1     103.511 138.074 123.389  0.00  0.00    +0.000 OA
ATOM     16  OXT ALA A   1     102.853 138.141 122.410  0.00  0.00    +0.000 OA
ENDBRANCH   4  14
ENDBRANCH   1   5
BRANCH   1  17
ATOM     17  N   ALA A   1     100.708 138.676 124.062  0.00  0.00    +0.000 NA
BRANCH  17  18
ATOM     18  C   UNK A   0     100.209 138.359 124.448  0.00  0.00    +0.000 C 
BRANCH  18  19
ATOM     19  C   UNK A   0      99.774 138.770 124.828  0.00  0.00    +0.000 C 
ATOM     20  O   UNK A   0      99.817 138.807 125.513  0.00  0.00    +0.000 OA
BRANCH  19  21
ATOM     21  O   UNK A   0      99.297 139.140 124.487  0.00  0.00    +0.000 OA
BRANCH  21  22
ATOM     22  C   UNK A   0      98.834 139.556 124.833  0.00  0.00    +0.000 C 
ATOM     23  C   UNK A   0      98.371 139.929 124.468  0.00  0.00    +0.000 C 
ENDBRANCH  21  22
ENDBRANCH  19  21
ENDBRANCH  18  19
BRANCH  18  24
ATOM     24  C   UNK A   0     100.149 137.659 124.453  0.00  0.00    +0.000 C 
BRANCH  24  25
ATOM     25  C   UNK A   0      99.590 137.353 124.126  0.00  0.00    +0.000 C 
BRANCH  25  26
ATOM     26  C   UNK A   0      99.545 136.644 124.085  0.00  0.00    +0.000 A 
ATOM     27  C   UNK A   0      99.479 136.245 124.681  0.00  0.00    +0.000 A 
ATOM     28  C   UNK A   0      99.566 136.336 123.443  0.00  0.00    +0.000 A 
ATOM     29  C   UNK A   0      99.434 135.540 124.634  0.00  0.00    +0.000 A 
ATOM     30  C   UNK A   0      99.521 135.627 123.403  0.00  0.00    +0.000 A 
ATOM     31  C   UNK A   0      99.455 135.228 123.999  0.00  0.00    +0.000 A 
ENDBRANCH  25  26
ENDBRANCH  24  25
ENDBRANCH  18  24
ENDBRANCH  17  18
ENDBRANCH   1  17
TORSDOF 10
ENDMDL
MODEL 10
REMARK VINA RESULT:      -9.4      1.804      3.404
REMARK  Name = 
REMARK  10 active torsions:
REMARK  status: ('A' for Active; 'I' for Inactive)
REMARK    1  A    between atoms: CA_2  and  C_6
REMARK    2  A    between atoms: C_3  and  CA_9
REMARK    3  A    between atoms: N_7  and  CA_9
REMARK    4  A    between atoms: N_7  and  C_11
REMARK    5  A    between atoms: C_10  and  C_11
REMARK    6  A    between atoms: C_10  and  O_17
REMARK    7  A    between atoms: C_11  and  C_15
REMARK    8  A    between atoms: C_15  and  C_18
REMARK    9  A    between atoms: O_17  and  C_23
REMARK   10  A    between atoms: C_18  and  C_19
REMARK                            x       y       z     vdW  Elec       q    Type
REMARK                         _______ _______ _______ _____ _____    ______ ____
ROOT
ATOM      1  CA  ALA A   1     140.417 113.215 163.082  0.00  0.00    +0.000 C 
ATOM      2  CB  ALA A   1     141.127 113.158 162.903  0.00  0.00    +0.000 C 
ENDROOT
BRANCH   1   5
ATOM      3  N   ALA A   1     140.058 114.186 162.193  0.00  0.00    +0.000 N 
ATOM      4  CA  ALA A   1     139.758 114.802 162.176  0.00  0.00    +0.000 C 
ATOM      5  C   ALA A   1     140.110 113.862 163.005  0.00  0.00    +0.000 C 
ATOM      6  C   ALA A   1     140.238 113.993 161.553  0.00  0.00    +0.000 C 
ATOM      7  C   ALA A   1     139.742 115.021 161.486  0.00  0.00    +0.000 C 
ATOM      8  C   ALA A   1     140.046 114.507 161.096  0.00  0.00    +0.000 C 
ATOM      9  O   ALA A   1     139.861 114.219 163.554  0.00  0.00    +0.000 OA
ATOM     10  C   ALA A   1     140.558 113.414 161.287  0.00  0.00    +0.000 C 
ATOM     11  C   ALA A   1     140.157 114.466 160.407  0.00  0.00    +0.000 C 
ATOM     12  C   ALA A   1     140.676 113.366 160.574  0.00  0.00    +0.000 C 
ATOM     13  C   ALA A   1     140.468 113.898 160.165  0.00  0.00    +0.000 C 
BRANCH   4  14
ATOM     14  C   ALA A   1     139.514 115.154 162.709  0.00  0.00    +0.000 C 
ATOM     15  O   ALA A   1     138.838 115.092 162.894  0.00  0.00    +0.000 OA
ATOM     16  OXT ALA A   1     139.913 115.554 163.054  0.00  0.00    +0.000 OA
ENDBRANCH   4  14
ENDBRANCH   1   5
BRANCH   1  17
ATOM     17  N   ALA A   1     140.065 112.652 163.317  0.00  0.00    +0.000 NA
BRANCH  17  18
ATOM     18  C   UNK A   0     140.394 112.104 163.619  0.00  0.00    +0.000 C 
BRANCH  18  19
ATOM     19  C   UNK A   0     140.483 112.117 164.321  0.00  0.00    +0.000 C 
ATOM     20  O   UNK A   0     141.105 112.179 164.606  0.00  0.00    +0.000 OA
BRANCH  19  21
ATOM     21  O   UNK A   0     139.920 112.066 164.721  0.00  0.00    +0.000 OA
BRANCH  21  22
ATOM     22  C   UNK A   0     139.970 112.032 165.431  0.00  0.00    +0.000 C 
ATOM     23  C   UNK A   0     139.387 112.006 165.814  0.00  0.00    +0.000 C 
ENDBRANCH  21  22
ENDBRANCH  19  21
ENDBRANCH  18  19
BRANCH  18  24
ATOM     24  C   UNK A   0     140.623 111.565 163.230  0.00  0.00    +0.000 C 
BRANCH  24  25
ATOM     25  C   UNK A   0     140.245 110.957 163.216  0.00  0.00    +0.000 C 
BRANCH  25  26
ATOM     26  C   UNK A   0     140.398 110.452 162.738  0.00  0.00    +0.000 A 
ATOM     27  C   UNK A   0     141.067 110.194 162.678  0.00  0.00    +0.000 A 
ATOM     28  C   UNK A   0     139.876 110.208 162.319  0.00  0.00    +0.000 A 
ATOM     29  C   UNK A   0     141.213 109.692 162.200  0.00  0.00    +0.000 A 
ATOM     30  C   UNK A   0     140.029 109.704 161.841  0.00  0.00    +0.000 A 
ATOM     31  C   UNK A   0     140.698 109.445 161.781  0.00  0.00    +0.000 A 
ENDBRANCH  25  26
ENDBRANCH  24  25
ENDBRANCH  18  24
ENDBRANCH  17  18
ENDBRANCH   1  17
TORSDOF 10
ENDMDL
MODEL 11
REMARK VINA RESULT:      -9.2     30.628     32.585
REMARK  Name = 
REMARK  10 active torsions:
REMARK  status: ('A' for Active; 'I' for Inactive)
REMARK    1  A    between atoms: CA_2  and  C_6
REMARK    2  A    between atoms: C_3  and  CA_9
REMARK    3  A    between atoms: N_7  and  CA_9
REMARK    4  A    between atoms: N_7  and  C_11
REMARK    5  A    between atoms: C_10  and  C_11
REMARK    6  A    between atoms: C_10  and  O_17
REMARK    7  A    between atoms: C_11  and  C_15
REMARK    8  A    between atoms: C_15  and  C_18
REMARK    9  A    between atoms: O_17  and  C_23
REMARK   10  A    between atoms: C_18  and  C_19
REMARK                            x       y       z     vdW  Elec       q    Type
REMARK                         _______ _______ _______ _____ _____    ______ ____
ROOT
ATOM      1  CA  ALA A   1     125.245 112.141 193.247  0.00  0.00    +0.000 C 
ATOM      2  CB  ALA A   1     124.611 112.167 193.616  0.00  0.00    +0.000 C 
ENDROOT
BRANCH   1   5
ATOM      3  N   ALA A   1     125.949 111.469 194.203  0.00  0.00    +0.000 N 
ATOM      4  CA  ALA A   1     126.542 111.503 194.546  0.00  0.00    +0.000 C 
ATOM      5  C   ALA A   1     125.852 112.128 193.636  0.00  0.00    +0.000 C 
ATOM      6  C   ALA A   1     125.591 110.912 194.407  0.00  0.00    +0.000 C 
ATOM      7  C   ALA A   1     126.569 110.938 194.997  0.00  0.00    +0.000 C 
ATOM      8  C   ALA A   1     125.968 110.567 194.906  0.00  0.00    +0.000 C 
ATOM      9  O   ALA A   1     126.345 112.621 193.565  0.00  0.00    +0.000 OA
ATOM     10  C   ALA A   1     124.959 110.641 194.220  0.00  0.00    +0.000 C 
ATOM     11  C   ALA A   1     125.743 109.982 195.216  0.00  0.00    +0.000 C 
ATOM     12  C   ALA A   1     124.722 110.034 194.538  0.00  0.00    +0.000 C 
ATOM     13  C   ALA A   1     125.129 109.732 195.024  0.00  0.00    +0.000 C 
BRANCH   4  14
ATOM     14  C   ALA A   1     127.025 111.982 194.480  0.00  0.00    +0.000 C 
ATOM     15  O   ALA A   1     127.571 111.876 194.049  0.00  0.00    +0.000 OA
ATOM     16  OXT ALA A   1     126.982 112.548 194.822  0.00  0.00    +0.000 OA
ENDBRANCH   4  14
ENDBRANCH   1   5
BRANCH   1  17
ATOM     17  N   ALA A   1     125.245 112.131 192.543  0.00  0.00    +0.000 NA
BRANCH  17  18
ATOM     18  C   UNK A   0     124.752 112.467 192.164  0.00  0.00    +0.000 C 
BRANCH  18  19
ATOM     19  C   UNK A   0     124.367 112.085 191.709  0.00  0.00    +0.000 C 
ATOM     20  O   UNK A   0     123.683 112.048 191.756  0.00  0.00    +0.000 OA
BRANCH  19  21
ATOM     21  O   UNK A   0     124.701 111.743 191.207  0.00  0.00    +0.000 OA
BRANCH  21  22
ATOM     22  C   UNK A   0     124.362 111.281 190.783  0.00  0.00    +0.000 C 
ATOM     23  C   UNK A   0     124.698 111.013 190.234  0.00  0.00    +0.000 C 
ENDBRANCH  21  22
ENDBRANCH  19  21
ENDBRANCH  18  19
BRANCH  18  24
ATOM     24  C   UNK A   0     124.652 113.159 192.239  0.00  0.00    +0.000 C 
BRANCH  24  25
ATOM     25  C   UNK A   0     124.520 113.559 191.659  0.00  0.00    +0.000 C 
BRANCH  25  26
ATOM     26  C   UNK A   0     124.512 114.268 191.710  0.00  0.00    +0.000 A 
ATOM     27  C   UNK A   0     124.124 114.596 192.221  0.00  0.00    +0.000 A 
ATOM     28  C   UNK A   0     124.895 114.649 191.246  0.00  0.00    +0.000 A 
ATOM     29  C   UNK A   0     124.120 115.303 192.266  0.00  0.00    +0.000 A 
ATOM     30  C   UNK A   0     124.887 115.359 191.296  0.00  0.00    +0.000 A 
ATOM     31  C   UNK A   0     124.499 115.686 191.807  0.00  0.00    +0.000 A 
ENDBRANCH  25  26
ENDBRANCH  24  25
ENDBRANCH  18  24
ENDBRANCH  17  18
ENDBRANCH   1  17
TORSDOF 10
ENDMDL
MODEL 12
REMARK VINA RESULT:      -9.1     31.045     32.704
REMARK  Name = 
REMARK  10 active torsions:
REMARK  status: ('A' for Active; 'I' for Inactive)
REMARK    1  A    between atoms: CA_2  and  C_6
REMARK    2  A    between atoms: C_3  and  CA_9
REMARK    3  A    between atoms: N_7  and  CA_9
REMARK    4  A    between atoms: N_7  and  C_11
REMARK    5  A    between atoms: C_10  and  C_11
REMARK    6  A    between atoms: C_10  and  O_17
REMARK    7  A    between atoms: C_11  and  C_15
REMARK    8  A    between atoms: C_15  and  C_18
REMARK    9  A    between atoms: O_17  and  C_23
REMARK   10  A    between atoms: C_18  and  C_19
REMARK                            x       y       z     vdW  Elec       q    Type
REMARK                         _______ _______ _______ _____ _____    ______ ____
ROOT
ATOM      1  CA  ALA A   1     161.375 127.520 184.583  0.00  0.00    +0.000 C 
ATOM      2  CB  ALA A   1     160.673 127.317 184.510  0.00  0.00    +0.000 C 
ENDROOT
BRANCH   1   5
ATOM      3  N   ALA A   1     161.716 126.986 185.791  0.00  0.00    +0.000 N 
ATOM      4  CA  ALA A   1     161.938 127.178 186.411  0.00  0.00    +0.000 C 
ATOM      5  C   ALA A   1     161.608 127.665 185.249  0.00  0.00    +0.000 C 
ATOM      6  C   ALA A   1     161.639 126.298 185.771  0.00  0.00    +0.000 C 
ATOM      7  C   ALA A   1     162.010 126.582 186.814  0.00  0.00    +0.000 C 
ATOM      8  C   ALA A   1     161.820 126.029 186.407  0.00  0.00    +0.000 C 
ATOM      9  O   ALA A   1     161.743 128.321 185.458  0.00  0.00    +0.000 OA
ATOM     10  C   ALA A   1     161.427 125.844 185.265  0.00  0.00    +0.000 C 
ATOM     11  C   ALA A   1     161.798 125.345 186.551  0.00  0.00    +0.000 C 
ATOM     12  C   ALA A   1     161.402 125.134 185.409  0.00  0.00    +0.000 C 
ATOM     13  C   ALA A   1     161.590 124.917 186.050  0.00  0.00    +0.000 C 
BRANCH   4  14
ATOM     14  C   ALA A   1     162.071 127.816 186.618  0.00  0.00    +0.000 C 
ATOM     15  O   ALA A   1     162.727 128.070 186.583  0.00  0.00    +0.000 OA
ATOM     16  OXT ALA A   1     161.584 128.198 186.852  0.00  0.00    +0.000 OA
ENDBRANCH   4  14
ENDBRANCH   1   5
BRANCH   1  17
ATOM     17  N   ALA A   1     161.790 127.567 184.016  0.00  0.00    +0.000 NA
BRANCH  17  18
ATOM     18  C   UNK A   0     161.555 127.819 183.399  0.00  0.00    +0.000 C 
BRANCH  18  19
ATOM     19  C   UNK A   0     161.491 127.366 182.860  0.00  0.00    +0.000 C 
ATOM     20  O   UNK A   0     160.879 127.204 182.593  0.00  0.00    +0.000 OA
BRANCH  19  21
ATOM     21  O   UNK A   0     162.069 127.083 182.602  0.00  0.00    +0.000 OA
BRANCH  21  22
ATOM     22  C   UNK A   0     162.047 126.621 182.060  0.00  0.00    +0.000 C 
ATOM     23  C   UNK A   0     162.640 126.328 181.837  0.00  0.00    +0.000 C 
ENDBRANCH  21  22
ENDBRANCH  19  21
ENDBRANCH  18  19
BRANCH  18  24
ATOM     24  C   UNK A   0     161.392 128.500 183.328  0.00  0.00    +0.000 C 
BRANCH  24  25
ATOM     25  C   UNK A   0     161.761 128.902 182.864  0.00  0.00    +0.000 C 
BRANCH  25  26
ATOM     26  C   UNK A   0     161.633 129.601 182.819  0.00  0.00    +0.000 A 
ATOM     27  C   UNK A   0     160.974 129.845 182.664  0.00  0.00    +0.000 A 
ATOM     28  C   UNK A   0     162.171 130.055 182.929  0.00  0.00    +0.000 A 
ATOM     29  C   UNK A   0     160.854 130.541 182.620  0.00  0.00    +0.000 A 
ATOM     30  C   UNK A   0     162.044 130.753 182.883  0.00  0.00    +0.000 A 
ATOM     31  C   UNK A   0     161.384 130.997 182.729  0.00  0.00    +0.000 A 
ENDBRANCH  25  26
ENDBRANCH  24  25
ENDBRANCH  18  24
ENDBRANCH  17  18
ENDBRANCH   1  17
TORSDOF 10
ENDMDL
MODEL 13
REMARK VINA RESULT:      -8.9     55.626     57.061
REMARK  Name = 
REMARK  10 active torsions:
REMARK  status: ('A' for Active; 'I' for Inactive)
REMARK    1  A    between atoms: CA_2  and  C_6
REMARK    2  A    between atoms: C_3  and  CA_9
REMARK    3  A    between atoms: N_7  and  CA_9
REMARK    4  A    between atoms: N_7  and  C_11
REMARK    5  A    between atoms: C_10  and  C_11
REMARK    6  A    between atoms: C_10  and  O_17
REMARK    7  A    between atoms: C_11  and  C_15
REMARK    8  A    between atoms: C_15  and  C_18
REMARK    9  A    between atoms: O_17  and  C_23
REMARK   10  A    between atoms: C_18  and  C_19
REMARK                            x       y       z     vdW  Elec       q    Type
REMARK                         _______ _______ _______ _____ _____    ______ ____
ROOT
ATOM      1  CA  ALA A   1      97.253 136.968 135.335  0.00  0.00    +0.000 C 
ATOM      2  CB  ALA A   1      97.792 136.536 135.086  0.00  0.00    +0.000 C 
ENDROOT
BRANCH   1   5
ATOM      3  N   ALA A   1      96.157 136.189 135.103  0.00  0.00    +0.000 N 
ATOM      4  CA  ALA A   1      95.632 135.901 135.438  0.00  0.00    +0.000 C 
ATOM      5  C   ALA A   1      96.683 136.644 135.634  0.00  0.00    +0.000 C 
ATOM      6  C   ALA A   1      96.120 136.035 134.429  0.00  0.00    +0.000 C 
ATOM      7  C   ALA A   1      95.233 135.541 134.954  0.00  0.00    +0.000 C 
ATOM      8  C   ALA A   1      95.544 135.627 134.318  0.00  0.00    +0.000 C 
ATOM      9  O   ALA A   1      96.554 136.688 136.322  0.00  0.00    +0.000 OA
ATOM     10  C   ALA A   1      96.526 136.199 133.866  0.00  0.00    +0.000 C 
ATOM     11  C   ALA A   1      95.364 135.386 133.687  0.00  0.00    +0.000 C 
ATOM     12  C   ALA A   1      96.343 135.951 133.210  0.00  0.00    +0.000 C 
ATOM     13  C   ALA A   1      95.767 135.553 133.152  0.00  0.00    +0.000 C 
BRANCH   4  14
ATOM     14  C   ALA A   1      95.502 135.942 136.107  0.00  0.00    +0.000 C 
ATOM     15  O   ALA A   1      95.066 136.437 136.353  0.00  0.00    +0.000 OA
ATOM     16  OXT ALA A   1      95.786 135.517 136.528  0.00  0.00    +0.000 OA
ENDBRANCH   4  14
ENDBRANCH   1   5
BRANCH   1  17
ATOM     17  N   ALA A   1      97.304 137.668 135.277  0.00  0.00    +0.000 NA
BRANCH  17  18
ATOM     18  C   UNK A   0      97.919 138.006 135.359  0.00  0.00    +0.000 C 
BRANCH  18  19
ATOM     19  C   UNK A   0      98.206 138.315 134.790  0.00  0.00    +0.000 C 
ATOM     20  O   UNK A   0      98.821 138.127 134.548  0.00  0.00    +0.000 OA
BRANCH  19  21
ATOM     21  O   UNK A   0      97.847 138.819 134.478  0.00  0.00    +0.000 OA
BRANCH  21  22
ATOM     22  C   UNK A   0      98.097 139.148 133.898  0.00  0.00    +0.000 C 
ATOM     23  C   UNK A   0      97.695 139.617 133.572  0.00  0.00    +0.000 C 
ENDBRANCH  21  22
ENDBRANCH  19  21
ENDBRANCH  18  19
BRANCH  18  24
ATOM     24  C   UNK A   0      98.233 138.033 135.988  0.00  0.00    +0.000 C 
BRANCH  24  25
ATOM     25  C   UNK A   0      98.327 138.668 136.306  0.00  0.00    +0.000 C 
BRANCH  25  26
ATOM     26  C   UNK A   0      98.629 138.704 136.950  0.00  0.00    +0.000 A 
ATOM     27  C   UNK A   0      98.238 138.602 137.546  0.00  0.00    +0.000 A 
ATOM     28  C   UNK A   0      99.327 138.842 136.992  0.00  0.00    +0.000 A 
ATOM     29  C   UNK A   0      98.546 138.639 138.183  0.00  0.00    +0.000 A 
ATOM     30  C   UNK A   0      99.629 138.878 137.635  0.00  0.00    +0.000 A 
ATOM     31  C   UNK A   0      99.238 138.776 138.231  0.00  0.00    +0.000 A 
ENDBRANCH  25  26
ENDBRANCH  24  25
ENDBRANCH  18  24
ENDBRANCH  17  18
ENDBRANCH   1  17
TORSDOF 10
ENDMDL
MODEL 14
REMARK VINA RESULT:      -8.9     29.247     31.231
REMARK  Name = 
REMARK  10 active torsions:
REMARK  status: ('A' for Active; 'I' for Inactive)
REMARK    1  A    between atoms: CA_2  and  C_6
REMARK    2  A    between atoms: C_3  and  CA_9
REMARK    3  A    between atoms: N_7  and  CA_9
REMARK    4  A    between atoms: N_7  and  C_11
REMARK    5  A    between atoms: C_10  and  C_11
REMARK    6  A    between atoms: C_10  and  O_17
REMARK    7  A    between atoms: C_11  and  C_15
REMARK    8  A    between atoms: C_15  and  C_18
REMARK    9  A    between atoms: O_17  and  C_23
REMARK   10  A    between atoms: C_18  and  C_19
REMARK                            x       y       z     vdW  Elec       q    Type
REMARK                         _______ _______ _______ _____ _____    ______ ____
ROOT
ATOM      1  CA  ALA A   1     113.015 126.561 157.259  0.00  0.00    +0.000 C 
ATOM      2  CB  ALA A   1     113.287 126.192 157.832  0.00  0.00    +0.000 C 
ENDROOT
BRANCH   1   5
ATOM      3  N   ALA A   1     111.680 126.565 157.539  0.00  0.00    +0.000 N 
ATOM      4  CA  ALA A   1     111.083 126.361 157.270  0.00  0.00    +0.000 C 
ATOM      5  C   ALA A   1     112.361 126.370 157.025  0.00  0.00    +0.000 C 
ATOM      6  C   ALA A   1     111.571 126.870 158.150  0.00  0.00    +0.000 C 
ATOM      7  C   ALA A   1     110.558 126.546 157.732  0.00  0.00    +0.000 C 
ATOM      8  C   ALA A   1     110.870 126.867 158.287  0.00  0.00    +0.000 C 
ATOM      9  O   ALA A   1     112.271 126.042 156.411  0.00  0.00    +0.000 OA
ATOM     10  C   ALA A   1     112.004 127.167 158.633  0.00  0.00    +0.000 C 
ATOM     11  C   ALA A   1     110.595 127.140 158.869  0.00  0.00    +0.000 C 
ATOM     12  C   ALA A   1     111.723 127.451 159.238  0.00  0.00    +0.000 C 
ATOM     13  C   ALA A   1     111.027 127.423 159.327  0.00  0.00    +0.000 C 
BRANCH   4  14
ATOM     14  C   ALA A   1     110.991 126.042 156.673  0.00  0.00    +0.000 C 
ATOM     15  O   ALA A   1     110.851 126.413 156.091  0.00  0.00    +0.000 OA
ATOM     16  OXT ALA A   1     111.032 125.382 156.638  0.00  0.00    +0.000 OA
ENDBRANCH   4  14
ENDBRANCH   1   5
BRANCH   1  17
ATOM     17  N   ALA A   1     113.390 127.078 156.961  0.00  0.00    +0.000 NA
BRANCH  17  18
ATOM     18  C   UNK A   0     114.093 127.042 156.896  0.00  0.00    +0.000 C 
BRANCH  18  19
ATOM     19  C   UNK A   0     114.484 127.493 157.276  0.00  0.00    +0.000 C 
ATOM     20  O   UNK A   0     114.913 127.277 157.767  0.00  0.00    +0.000 OA
BRANCH  19  21
ATOM     21  O   UNK A   0     114.423 128.170 157.140  0.00  0.00    +0.000 OA
BRANCH  21  22
ATOM     22  C   UNK A   0     114.785 128.658 157.512  0.00  0.00    +0.000 C 
ATOM     23  C   UNK A   0     114.681 129.335 157.379  0.00  0.00    +0.000 C 
ENDBRANCH  21  22
ENDBRANCH  19  21
ENDBRANCH  18  19
BRANCH  18  24
ATOM     24  C   UNK A   0     114.390 126.570 156.467  0.00  0.00    +0.000 C 
BRANCH  24  25
ATOM     25  C   UNK A   0     114.742 126.798 155.886  0.00  0.00    +0.000 C 
BRANCH  25  26
ATOM     26  C   UNK A   0     115.034 126.328 155.439  0.00  0.00    +0.000 A 
ATOM     27  C   UNK A   0     115.634 125.973 155.619  0.00  0.00    +0.000 A 
ATOM     28  C   UNK A   0     114.721 126.216 154.809  0.00  0.00    +0.000 A 
ATOM     29  C   UNK A   0     115.919 125.506 155.168  0.00  0.00    +0.000 A 
ATOM     30  C   UNK A   0     115.012 125.745 154.361  0.00  0.00    +0.000 A 
ATOM     31  C   UNK A   0     115.612 125.390 154.541  0.00  0.00    +0.000 A 
ENDBRANCH  25  26
ENDBRANCH  24  25
ENDBRANCH  18  24
ENDBRANCH  17  18
ENDBRANCH   1  17
TORSDOF 10
ENDMDL
MODEL 15
REMARK VINA RESULT:      -8.9     31.579     34.087
REMARK  Name = 
REMARK  10 active torsions:
REMARK  status: ('A' for Active; 'I' for Inactive)
REMARK    1  A    between atoms: CA_2  and  C_6
REMARK    2  A    between atoms: C_3  and  CA_9
REMARK    3  A    between atoms: N_7  and  CA_9
REMARK    4  A    between atoms: N_7  and  C_11
REMARK    5  A    between atoms: C_10  and  C_11
REMARK    6  A    between atoms: C_10  and  O_17
REMARK    7  A    between atoms: C_11  and  C_15
REMARK    8  A    between atoms: C_15  and  C_18
REMARK    9  A    between atoms: O_17  and  C_23
REMARK   10  A    between atoms: C_18  and  C_19
REMARK                            x       y       z     vdW  Elec       q    Type
REMARK                         _______ _______ _______ _____ _____    ______ ____
ROOT
ATOM      1  CA  ALA A   1     126.911 109.405 195.282  0.00  0.00    +0.000 C 
ATOM      2  CB  ALA A   1     126.903 109.967 195.754  0.00  0.00    +0.000 C 
ENDROOT
BRANCH   1   5
ATOM      3  N   ALA A   1     126.235 108.545 196.098  0.00  0.00    +0.000 N 
ATOM      4  CA  ALA A   1     126.270 107.903 196.335  0.00  0.00    +0.000 C 
ATOM      5  C   ALA A   1     126.898 108.740 195.561  0.00  0.00    +0.000 C 
ATOM      6  C   ALA A   1     125.675 108.861 196.356  0.00  0.00    +0.000 C 
ATOM      7  C   ALA A   1     125.702 107.796 196.770  0.00  0.00    +0.000 C 
ATOM      8  C   ALA A   1     125.329 108.404 196.781  0.00  0.00    +0.000 C 
ATOM      9  O   ALA A   1     127.394 108.268 195.411  0.00  0.00    +0.000 OA
ATOM     10  C   ALA A   1     125.402 109.515 196.278  0.00  0.00    +0.000 C 
ATOM     11  C   ALA A   1     124.740 108.569 197.120  0.00  0.00    +0.000 C 
ATOM     12  C   ALA A   1     124.792 109.692 196.627  0.00  0.00    +0.000 C 
ATOM     13  C   ALA A   1     124.488 109.207 197.034  0.00  0.00    +0.000 C 
BRANCH   4  14
ATOM     14  C   ALA A   1     126.751 107.440 196.191  0.00  0.00    +0.000 C 
ATOM     15  O   ALA A   1     126.664 106.994 195.653  0.00  0.00    +0.000 OA
ATOM     16  OXT ALA A   1     127.303 107.408 196.556  0.00  0.00    +0.000 OA
ENDBRANCH   4  14
ENDBRANCH   1   5
BRANCH   1  17
ATOM     17  N   ALA A   1     126.929 109.525 194.589  0.00  0.00    +0.000 NA
BRANCH  17  18
ATOM     18  C   UNK A   0     127.171 110.133 194.320  0.00  0.00    +0.000 C 
BRANCH  18  19
ATOM     19  C   UNK A   0     127.861 110.174 194.165  0.00  0.00    +0.000 C 
ATOM     20  O   UNK A   0     128.292 110.560 194.536  0.00  0.00    +0.000 OA
BRANCH  19  21
ATOM     21  O   UNK A   0     128.095 109.811 193.623  0.00  0.00    +0.000 OA
BRANCH  21  22
ATOM     22  C   UNK A   0     128.769 109.869 193.402  0.00  0.00    +0.000 C 
ATOM     23  C   UNK A   0     128.980 109.496 192.850  0.00  0.00    +0.000 C 
ENDBRANCH  21  22
ENDBRANCH  19  21
ENDBRANCH  18  19
BRANCH  18  24
ATOM     24  C   UNK A   0     126.738 110.676 194.213  0.00  0.00    +0.000 C 
BRANCH  24  25
ATOM     25  C   UNK A   0     126.446 110.769 193.565  0.00  0.00    +0.000 C 
BRANCH  25  26
ATOM     26  C   UNK A   0     125.954 111.273 193.464  0.00  0.00    +0.000 A 
ATOM     27  C   UNK A   0     126.058 111.942 193.708  0.00  0.00    +0.000 A 
ATOM     28  C   UNK A   0     125.356 111.102 193.117  0.00  0.00    +0.000 A 
ATOM     29  C   UNK A   0     125.564 112.439 193.605  0.00  0.00    +0.000 A 
ATOM     30  C   UNK A   0     124.864 111.606 193.016  0.00  0.00    +0.000 A 
ATOM     31  C   UNK A   0     124.968 112.275 193.260  0.00  0.00    +0.000 A 
ENDBRANCH  25  26
ENDBRANCH  24  25
ENDBRANCH  18  24
ENDBRANCH  17  18
ENDBRANCH   1  17
TORSDOF 10
ENDMDL
MODEL 16
REMARK VINA RESULT:      -8.9     59.963     61.343
REMARK  Name = 
REMARK  10 active torsions:
REMARK  status: ('A' for Active; 'I' for Inactive)
REMARK    1  A    between atoms: CA_2  and  C_6
REMARK    2  A    between atoms: C_3  and  CA_9
REMARK    3  A    between atoms: N_7  and  CA_9
REMARK    4  A    between atoms: N_7  and  C_11
REMARK    5  A    between atoms: C_10  and  C_11
REMARK    6  A    between atoms: C_10  and  O_17
REMARK    7  A    between atoms: C_11  and  C_15
REMARK    8  A    between atoms: C_15  and  C_18
REMARK    9  A    between atoms: O_17  and  C_23
REMARK   10  A    between atoms: C_18  and  C_19
REMARK                            x       y       z     vdW  Elec       q    Type
REMARK                         _______ _______ _______ _____ _____    ______ ____
ROOT
ATOM      1  CA  ALA A   1     100.158 137.462 124.261  0.00  0.00    +0.000 C 
ATOM      2  CB  ALA A   1      99.757 137.978 123.926  0.00  0.00    +0.000 C 
ENDROOT
BRANCH   1   5
ATOM      3  N   ALA A   1      99.227 136.471 124.371  0.00  0.00    +0.000 N 
ATOM      4  CA  ALA A   1      99.132 135.814 124.201  0.00  0.00    +0.000 C 
ATOM      5  C   ALA A   1     100.005 136.775 124.108  0.00  0.00    +0.000 C 
ATOM      6  C   ALA A   1      98.671 136.710 124.707  0.00  0.00    +0.000 C 
ATOM      7  C   ALA A   1      98.478 135.616 124.440  0.00  0.00    +0.000 C 
ATOM      8  C   ALA A   1      98.191 136.185 124.759  0.00  0.00    +0.000 C 
ATOM      9  O   ALA A   1     100.457 136.365 123.764  0.00  0.00    +0.000 OA
ATOM     10  C   ALA A   1      98.505 137.343 124.991  0.00  0.00    +0.000 C 
ATOM     11  C   ALA A   1      97.571 136.265 125.074  0.00  0.00    +0.000 C 
ATOM     12  C   ALA A   1      97.864 137.431 125.318  0.00  0.00    +0.000 C 
ATOM     13  C   ALA A   1      97.425 136.884 125.344  0.00  0.00    +0.000 C 
BRANCH   4  14
ATOM     14  C   ALA A   1      99.570 135.410 123.865  0.00  0.00    +0.000 C 
ATOM     15  O   ALA A   1      99.535 135.356 123.164  0.00  0.00    +0.000 OA
ATOM     16  OXT ALA A   1     100.029 135.069 124.198  0.00  0.00    +0.000 OA
ENDBRANCH   4  14
ENDBRANCH   1   5
BRANCH   1  17
ATOM     17  N   ALA A   1     100.668 137.647 124.711  0.00  0.00    +0.000 NA
BRANCH  17  18
ATOM     18  C   UNK A   0     101.055 138.231 124.619  0.00  0.00    +0.000 C 
BRANCH  18  19
ATOM     19  C   UNK A   0     100.982 138.754 125.091  0.00  0.00    +0.000 C 
ATOM     20  O   UNK A   0     100.733 139.369 124.914  0.00  0.00    +0.000 OA
BRANCH  19  21
ATOM     21  O   UNK A   0     101.171 138.629 125.746  0.00  0.00    +0.000 OA
BRANCH  21  22
ATOM     22  C   UNK A   0     101.115 139.129 126.250  0.00  0.00    +0.000 C 
ATOM     23  C   UNK A   0     101.262 138.964 126.912  0.00  0.00    +0.000 C 
ENDBRANCH  21  22
ENDBRANCH  19  21
ENDBRANCH  18  19
BRANCH  18  24
ATOM     24  C   UNK A   0     101.497 138.287 124.075  0.00  0.00    +0.000 C 
BRANCH  24  25
ATOM     25  C   UNK A   0     102.191 138.413 124.198  0.00  0.00    +0.000 C 
BRANCH  25  26
ATOM     26  C   UNK A   0     102.654 138.422 123.658  0.00  0.00    +0.000 A 
ATOM     27  C   UNK A   0     103.136 137.894 123.577  0.00  0.00    +0.000 A 
ATOM     28  C   UNK A   0     102.631 138.966 123.198  0.00  0.00    +0.000 A 
ATOM     29  C   UNK A   0     103.594 137.910 123.036  0.00  0.00    +0.000 A 
ATOM     30  C   UNK A   0     103.093 138.976 122.657  0.00  0.00    +0.000 A 
ATOM     31  C   UNK A   0     103.575 138.447 122.576  0.00  0.00    +0.000 A 
ENDBRANCH  25  26
ENDBRANCH  24  25
ENDBRANCH  18  24
ENDBRANCH  17  18
ENDBRANCH   1  17
TORSDOF 10
ENDMDL
MODEL 17
REMARK VINA RESULT:      -8.8      2.571      3.778
REMARK  Name = 
REMARK  10 active torsions:
REMARK  status: ('A' for Active; 'I' for Inactive)
REMARK    1  A    between atoms: CA_2  and  C_6
REMARK    2  A    between atoms: C_3  and  CA_9
REMARK    3  A    between atoms: N_7  and  CA_9
REMARK    4  A    between atoms: N_7  and  C_11
REMARK    5  A    between atoms: C_10  and  C_11
REMARK    6  A    between atoms: C_10  and  O_17
REMARK    7  A    between atoms: C_11  and  C_15
REMARK    8  A    between atoms: C_15  and  C_18
REMARK    9  A    between atoms: O_17  and  C_23
REMARK   10  A    between atoms: C_18  and  C_19
REMARK                            x       y       z     vdW  Elec       q    Type
REMARK                         _______ _______ _______ _____ _____    ______ ____
ROOT
ATOM      1  CA  ALA A   1     140.543 114.206 161.817  0.00  0.00    +0.000 C 
ATOM      2  CB  ALA A   1     141.244 114.295 162.016  0.00  0.00    +0.000 C 
ENDROOT
BRANCH   1   5
ATOM      3  N   ALA A   1     140.676 113.854 160.506  0.00  0.00    +0.000 N 
ATOM      4  CA  ALA A   1     140.518 113.343 160.076  0.00  0.00    +0.000 C 
ATOM      5  C   ALA A   1     140.403 113.700 161.323  0.00  0.00    +0.000 C 
ATOM      6  C   ALA A   1     141.012 114.353 160.163  0.00  0.00    +0.000 C 
ATOM      7  C   ALA A   1     140.765 113.521 159.420  0.00  0.00    +0.000 C 
ATOM      8  C   ALA A   1     141.076 114.160 159.479  0.00  0.00    +0.000 C 
ATOM      9  O   ALA A   1     140.063 113.110 161.487  0.00  0.00    +0.000 OA
ATOM     10  C   ALA A   1     141.286 114.982 160.359  0.00  0.00    +0.000 C 
ATOM     11  C   ALA A   1     141.393 114.557 158.999  0.00  0.00    +0.000 C 
ATOM     12  C   ALA A   1     141.615 115.398 159.865  0.00  0.00    +0.000 C 
ATOM     13  C   ALA A   1     141.653 115.163 159.204  0.00  0.00    +0.000 C 
BRANCH   4  14
ATOM     14  C   ALA A   1     140.187 112.766 160.232  0.00  0.00    +0.000 C 
ATOM     15  O   ALA A   1     139.491 112.720 160.136  0.00  0.00    +0.000 OA
ATOM     16  OXT ALA A   1     140.518 112.246 160.474  0.00  0.00    +0.000 OA
ENDBRANCH   4  14
ENDBRANCH   1   5
BRANCH   1  17
ATOM     17  N   ALA A   1     140.039 114.605 162.105  0.00  0.00    +0.000 NA
BRANCH  17  18
ATOM     18  C   UNK A   0     140.048 114.783 162.789  0.00  0.00    +0.000 C 
BRANCH  18  19
ATOM     19  C   UNK A   0     140.220 115.449 162.956  0.00  0.00    +0.000 C 
ATOM     20  O   UNK A   0     139.802 115.977 162.814  0.00  0.00    +0.000 OA
BRANCH  19  21
ATOM     21  O   UNK A   0     140.827 115.560 163.270  0.00  0.00    +0.000 OA
BRANCH  21  22
ATOM     22  C   UNK A   0     141.031 116.214 163.465  0.00  0.00    +0.000 C 
ATOM     23  C   UNK A   0     141.682 116.314 163.697  0.00  0.00    +0.000 C 
ENDBRANCH  21  22
ENDBRANCH  19  21
ENDBRANCH  18  19
BRANCH  18  24
ATOM     24  C   UNK A   0     139.891 114.309 163.285  0.00  0.00    +0.000 C 
BRANCH  24  25
ATOM     25  C   UNK A   0     139.262 114.354 163.625  0.00  0.00    +0.000 C 
BRANCH  25  26
ATOM     26  C   UNK A   0     139.073 113.852 164.093  0.00  0.00    +0.000 A 
ATOM     27  C   UNK A   0     139.534 113.632 164.601  0.00  0.00    +0.000 A 
ATOM     28  C   UNK A   0     138.420 113.572 164.050  0.00  0.00    +0.000 A 
ATOM     29  C   UNK A   0     139.340 113.132 165.064  0.00  0.00    +0.000 A 
ATOM     30  C   UNK A   0     138.231 113.071 164.518  0.00  0.00    +0.000 A 
ATOM     31  C   UNK A   0     138.692 112.850 165.026  0.00  0.00    +0.000 A 
ENDBRANCH  25  26
ENDBRANCH  24  25
ENDBRANCH  18  24
ENDBRANCH  17  18
ENDBRANCH   1  17
TORSDOF 10
ENDMDL
MODEL 18
REMARK VINA RESULT:      -8.7     29.346     31.643
REMARK  Name = 
REMARK  10 active torsions:
REMARK  status: ('A' for Active; 'I' for Inactive)
REMARK    1  A    between atoms: CA_2  and  C_6
REMARK    2  A    between atoms: C_3  and  CA_9
REMARK    3  A    between atoms: N_7  and  CA_9
REMARK    4  A    between atoms: N_7  and  C_11
REMARK    5  A    between atoms: C_10  and  C_11
REMARK    6  A    between atoms: C_10  and  O_17
REMARK    7  A    between atoms: C_11  and  C_15
REMARK    8  A    between atoms: C_15  and  C_18
REMARK    9  A    between atoms: O_17  and  C_23
REMARK   10  A    between atoms: C_18  and  C_19
REMARK                            x       y       z     vdW  Elec       q    Type
REMARK                         _______ _______ _______ _____ _____    ______ ____
ROOT
ATOM      1  CA  ALA A   1     161.187 128.154 182.374  0.00  0.00    +0.000 C 
ATOM      2  CB  ALA A   1     160.574 128.179 182.777  0.00  0.00    +0.000 C 
ENDROOT
BRANCH   1   5
ATOM      3  N   ALA A   1     160.862 127.116 181.552  0.00  0.00    +0.000 N 
ATOM      4  CA  ALA A   1     160.817 126.964 180.884  0.00  0.00    +0.000 C 
ATOM      5  C   ALA A   1     161.122 127.940 181.689  0.00  0.00    +0.000 C 
ATOM      6  C   ALA A   1     160.686 126.565 181.931  0.00  0.00    +0.000 C 
ATOM      7  C   ALA A   1     160.599 126.276 180.829  0.00  0.00    +0.000 C 
ATOM      8  C   ALA A   1     160.518 126.027 181.492  0.00  0.00    +0.000 C 
ATOM      9  O   ALA A   1     161.261 128.371 181.154  0.00  0.00    +0.000 OA
ATOM     10  C   ALA A   1     160.645 126.446 182.633  0.00  0.00    +0.000 C 
ATOM     11  C   ALA A   1     160.317 125.397 181.720  0.00  0.00    +0.000 C 
ATOM     12  C   ALA A   1     160.438 125.795 182.874  0.00  0.00    +0.000 C 
ATOM     13  C   ALA A   1     160.283 125.298 182.403  0.00  0.00    +0.000 C 
BRANCH   4  14
ATOM     14  C   ALA A   1     160.951 127.381 180.360  0.00  0.00    +0.000 C 
ATOM     15  O   ALA A   1     160.443 127.788 180.093  0.00  0.00    +0.000 OA
ATOM     16  OXT ALA A   1     161.560 127.404 180.100  0.00  0.00    +0.000 OA
ENDBRANCH   4  14
ENDBRANCH   1   5
BRANCH   1  17
ATOM     17  N   ALA A   1     161.805 128.336 182.659  0.00  0.00    +0.000 NA
BRANCH  17  18
ATOM     18  C   UNK A   0     161.858 128.847 183.145  0.00  0.00    +0.000 C 
BRANCH  18  19
ATOM     19  C   UNK A   0     162.069 128.663 183.795  0.00  0.00    +0.000 C 
ATOM     20  O   UNK A   0     161.671 128.763 184.346  0.00  0.00    +0.000 OA
BRANCH  19  21
ATOM     21  O   UNK A   0     162.696 128.377 183.865  0.00  0.00    +0.000 OA
BRANCH  21  22
ATOM     22  C   UNK A   0     162.931 128.146 184.497  0.00  0.00    +0.000 C 
ATOM     23  C   UNK A   0     163.552 127.830 184.536  0.00  0.00    +0.000 C 
ENDBRANCH  21  22
ENDBRANCH  19  21
ENDBRANCH  18  19
BRANCH  18  24
ATOM     24  C   UNK A   0     161.706 129.514 182.983  0.00  0.00    +0.000 C 
BRANCH  24  25
ATOM     25  C   UNK A   0     162.215 130.014 183.042  0.00  0.00    +0.000 C 
BRANCH  25  26
ATOM     26  C   UNK A   0     162.087 130.680 182.827  0.00  0.00    +0.000 A 
ATOM     27  C   UNK A   0     161.503 131.034 183.055  0.00  0.00    +0.000 A 
ATOM     28  C   UNK A   0     162.548 130.990 182.381  0.00  0.00    +0.000 A 
ATOM     29  C   UNK A   0     161.382 131.697 182.837  0.00  0.00    +0.000 A 
ATOM     30  C   UNK A   0     162.420 131.656 182.165  0.00  0.00    +0.000 A 
ATOM     31  C   UNK A   0     161.836 132.010 182.394  0.00  0.00    +0.000 A 
ENDBRANCH  25  26
ENDBRANCH  24  25
ENDBRANCH  18  24
ENDBRANCH  17  18
ENDBRANCH   1  17
TORSDOF 10
ENDMDL
MODEL 19
REMARK VINA RESULT:      -8.7     32.264     34.379
REMARK  Name = 
REMARK  10 active torsions:
REMARK  status: ('A' for Active; 'I' for Inactive)
REMARK    1  A    between atoms: CA_2  and  C_6
REMARK    2  A    between atoms: C_3  and  CA_9
REMARK    3  A    between atoms: N_7  and  CA_9
REMARK    4  A    between atoms: N_7  and  C_11
REMARK    5  A    between atoms: C_10  and  C_11
REMARK    6  A    between atoms: C_10  and  O_17
REMARK    7  A    between atoms: C_11  and  C_15
REMARK    8  A    between atoms: C_15  and  C_18
REMARK    9  A    between atoms: O_17  and  C_23
REMARK   10  A    between atoms: C_18  and  C_19
REMARK                            x       y       z     vdW  Elec       q    Type
REMARK                         _______ _______ _______ _____ _____    ______ ____
ROOT
ATOM      1  CA  ALA A   1     126.647 109.212 195.434  0.00  0.00    +0.000 C 
ATOM      2  CB  ALA A   1     126.722 109.606 196.049  0.00  0.00    +0.000 C 
ENDROOT
BRANCH   1   5
ATOM      3  N   ALA A   1     127.254 110.110 194.606  0.00  0.00    +0.000 N 
ATOM      4  CA  ALA A   1     127.740 110.139 194.123  0.00  0.00    +0.000 C 
ATOM      5  C   ALA A   1     127.146 109.301 194.923  0.00  0.00    +0.000 C 
ATOM      6  C   ALA A   1     126.983 110.739 194.706  0.00  0.00    +0.000 C 
ATOM      7  C   ALA A   1     127.787 110.825 193.898  0.00  0.00    +0.000 C 
ATOM      8  C   ALA A   1     127.307 111.201 194.269  0.00  0.00    +0.000 C 
ATOM      9  O   ALA A   1     127.532 108.765 194.687  0.00  0.00    +0.000 OA
ATOM     10  C   ALA A   1     126.474 110.990 195.138  0.00  0.00    +0.000 C 
ATOM     11  C   ALA A   1     127.148 111.881 194.247  0.00  0.00    +0.000 C 
ATOM     12  C   ALA A   1     126.305 111.695 195.119  0.00  0.00    +0.000 C 
ATOM     13  C   ALA A   1     126.652 112.109 194.671  0.00  0.00    +0.000 C 
BRANCH   4  14
ATOM     14  C   ALA A   1     128.118 109.619 193.891  0.00  0.00    +0.000 C 
ATOM     15  O   ALA A   1     128.736 109.468 194.192  0.00  0.00    +0.000 OA
ATOM     16  OXT ALA A   1     127.904 109.254 193.381  0.00  0.00    +0.000 OA
ENDBRANCH   4  14
ENDBRANCH   1   5
BRANCH   1  17
ATOM     17  N   ALA A   1     126.104 108.769 195.362  0.00  0.00    +0.000 NA
BRANCH  17  18
ATOM     18  C   UNK A   0     125.810 108.444 195.917  0.00  0.00    +0.000 C 
BRANCH  18  19
ATOM     19  C   UNK A   0     125.132 108.588 196.064  0.00  0.00    +0.000 C 
ATOM     20  O   UNK A   0     124.943 108.864 196.664  0.00  0.00    +0.000 OA
BRANCH  19  21
ATOM     21  O   UNK A   0     124.657 108.442 195.581  0.00  0.00    +0.000 OA
BRANCH  21  22
ATOM     22  C   UNK A   0     123.967 108.586 195.684  0.00  0.00    +0.000 C 
ATOM     23  C   UNK A   0     123.514 108.480 195.163  0.00  0.00    +0.000 C 
ENDBRANCH  21  22
ENDBRANCH  19  21
ENDBRANCH  18  19
BRANCH  18  24
ATOM     24  C   UNK A   0     126.182 107.992 196.307  0.00  0.00    +0.000 C 
BRANCH  24  25
ATOM     25  C   UNK A   0     125.950 107.318 196.380  0.00  0.00    +0.000 C 
BRANCH  25  26
ATOM     26  C   UNK A   0     126.348 106.839 196.724  0.00  0.00    +0.000 A 
ATOM     27  C   UNK A   0     126.630 106.277 196.374  0.00  0.00    +0.000 A 
ATOM     28  C   UNK A   0     126.463 106.927 197.421  0.00  0.00    +0.000 A 
ATOM     29  C   UNK A   0     127.026 105.804 196.722  0.00  0.00    +0.000 A 
ATOM     30  C   UNK A   0     126.862 106.448 197.765  0.00  0.00    +0.000 A 
ATOM     31  C   UNK A   0     127.143 105.886 197.415  0.00  0.00    +0.000 A 
ENDBRANCH  25  26
ENDBRANCH  24  25
ENDBRANCH  18  24
ENDBRANCH  17  18
ENDBRANCH   1  17
TORSDOF 10
ENDMDL
MODEL 20
REMARK VINA RESULT:      -8.6     30.453     32.414
REMARK  Name = 
REMARK  10 active torsions:
REMARK  status: ('A' for Active; 'I' for Inactive)
REMARK    1  A    between atoms: CA_2  and  C_6
REMARK    2  A    between atoms: C_3  and  CA_9
REMARK    3  A    between atoms: N_7  and  CA_9
REMARK    4  A    between atoms: N_7  and  C_11
REMARK    5  A    between atoms: C_10  and  C_11
REMARK    6  A    between atoms: C_10  and  O_17
REMARK    7  A    between atoms: C_11  and  C_15
REMARK    8  A    between atoms: C_15  and  C_18
REMARK    9  A    between atoms: O_17  and  C_23
REMARK   10  A    between atoms: C_18  and  C_19
REMARK                            x       y       z     vdW  Elec       q    Type
REMARK                         _______ _______ _______ _____ _____    ______ ____
ROOT
ATOM      1  CA  ALA A   1     161.806 128.802 183.188  0.00  0.00    +0.000 C 
ATOM      2  CB  ALA A   1     161.135 128.977 182.949  0.00  0.00    +0.000 C 
ENDROOT
BRANCH   1   5
ATOM      3  N   ALA A   1     162.440 129.846 182.580  0.00  0.00    +0.000 N 
ATOM      4  CA  ALA A   1     162.986 129.976 182.185  0.00  0.00    +0.000 C 
ATOM      5  C   ALA A   1     162.363 128.996 182.775  0.00  0.00    +0.000 C 
ATOM      6  C   ALA A   1     162.101 130.434 182.713  0.00  0.00    +0.000 C 
ATOM      7  C   ALA A   1     163.000 130.687 182.056  0.00  0.00    +0.000 C 
ATOM      8  C   ALA A   1     162.440 130.973 182.391  0.00  0.00    +0.000 C 
ATOM      9  O   ALA A   1     162.826 128.526 182.537  0.00  0.00    +0.000 OA
ATOM     10  C   ALA A   1     161.514 130.586 183.089  0.00  0.00    +0.000 C 
ATOM     11  C   ALA A   1     162.222 131.637 182.428  0.00  0.00    +0.000 C 
ATOM     12  C   ALA A   1     161.284 131.273 183.131  0.00  0.00    +0.000 C 
ATOM     13  C   ALA A   1     161.652 131.768 182.796  0.00  0.00    +0.000 C 
BRANCH   4  14
ATOM     14  C   ALA A   1     163.439 129.521 181.951  0.00  0.00    +0.000 C 
ATOM     15  O   ALA A   1     164.028 129.390 182.314  0.00  0.00    +0.000 OA
ATOM     16  OXT ALA A   1     163.327 129.201 181.383  0.00  0.00    +0.000 OA
ENDBRANCH   4  14
ENDBRANCH   1   5
BRANCH   1  17
ATOM     17  N   ALA A   1     161.887 128.459 183.798  0.00  0.00    +0.000 NA
BRANCH  17  18
ATOM     18  C   UNK A   0     161.400 128.008 184.041  0.00  0.00    +0.000 C 
BRANCH  18  19
ATOM     19  C   UNK A   0     161.120 128.136 184.679  0.00  0.00    +0.000 C 
ATOM     20  O   UNK A   0     160.446 128.241 184.764  0.00  0.00    +0.000 OA
BRANCH  19  21
ATOM     21  O   UNK A   0     161.547 128.153 185.224  0.00  0.00    +0.000 OA
BRANCH  21  22
ATOM     22  C   UNK A   0     161.314 128.331 185.873  0.00  0.00    +0.000 C 
ATOM     23  C   UNK A   0     161.751 128.290 186.416  0.00  0.00    +0.000 C 
ENDBRANCH  21  22
ENDBRANCH  19  21
ENDBRANCH  18  19
BRANCH  18  24
ATOM     24  C   UNK A   0     161.203 127.452 183.659  0.00  0.00    +0.000 C 
BRANCH  24  25
ATOM     25  C   UNK A   0     161.234 126.798 183.949  0.00  0.00    +0.000 C 
BRANCH  25  26
ATOM     26  C   UNK A   0     161.104 126.223 183.550  0.00  0.00    +0.000 A 
ATOM     27  C   UNK A   0     161.633 125.762 183.387  0.00  0.00    +0.000 A 
ATOM     28  C   UNK A   0     160.441 126.113 183.314  0.00  0.00    +0.000 A 
ATOM     29  C   UNK A   0     161.497 125.193 182.989  0.00  0.00    +0.000 A 
ATOM     30  C   UNK A   0     160.312 125.539 182.914  0.00  0.00    +0.000 A 
ATOM     31  C   UNK A   0     160.841 125.078 182.751  0.00  0.00    +0.000 A 
ENDBRANCH  25  26
ENDBRANCH  24  25
ENDBRANCH  18  24
ENDBRANCH  17  18
ENDBRANCH   1  17
TORSDOF 10
ENDMDL
