MODEL 1
REMARK VINA RESULT:      -9.1      0.000      0.000
REMARK  Name = 
REMARK  2 active torsions:
REMARK  status: ('A' for Active; 'I' for Inactive)
REMARK    1  A    between atoms: N_3  and  C_5
REMARK    2  A    between atoms: C_5  and  C_6
REMARK                            x       y       z     vdW  Elec       q    Type
REMARK                         _______ _______ _______ _____ _____    ______ ____
ROOT
ATOM      1  C   UNL     1     122.427 143.858 167.942  0.00  0.00    +0.000 C 
ENDROOT
BRANCH   1   4
ATOM      2  C   UNL     1     121.985 144.281 166.896  0.00  0.00    +0.000 C 
ATOM      3  N   UNL     1     122.619 144.283 166.599  0.00  0.00    +0.000 NA
ATOM      4  N   UNL     1     121.888 144.073 167.555  0.00  0.00    +0.000 NA
ATOM      5  N   UNL     1     121.442 144.493 166.519  0.00  0.00    +0.000 NA
ATOM      6  C   UNL     1     122.681 144.500 165.930  0.00  0.00    +0.000 C 
ATOM      7  C   UNL     1     121.526 144.714 165.830  0.00  0.00    +0.000 C 
ENDBRANCH   1   4
BRANCH   1   8
ATOM      8  C   UNL     1     122.336 143.651 168.595  0.00  0.00    +0.000 A 
ATOM      9  C   UNL     1     122.915 143.499 169.022  0.00  0.00    +0.000 A 
ATOM     10  C   UNL     1     121.696 143.590 168.839  0.00  0.00    +0.000 A 
ATOM     11  C   UNL     1     122.836 143.294 169.670  0.00  0.00    +0.000 A 
ATOM     12  C   UNL     1     121.603 143.369 169.540  0.00  0.00    +0.000 A 
ATOM     13  C   UNL     1     122.157 143.223 169.950  0.00  0.00    +0.000 A 
ENDBRANCH   1   8
TORSDOF 2
ENDMDL
MODEL 2
REMARK VINA RESULT:      -8.8      1.164      1.564
REMARK  Name = 
REMARK  2 active torsions:
REMARK  status: ('A' for Active; 'I' for Inactive)
REMARK    1  A    between atoms: N_3  and  C_5
REMARK    2  A    between atoms: C_5  and  C_6
REMARK                            x       y       z     vdW  Elec       q    Type
REMARK                         _______ _______ _______ _____ _____    ______ ____
ROOT
ATOM      1  C   UNL     1     122.840 143.615 168.114  0.00  0.00    +0.000 C 
ENDROOT
BRANCH   1   4
ATOM      2  C   UNL     1     123.645 144.199 167.421  0.00  0.00    +0.000 C 
ATOM      3  N   UNL     1     123.405 143.892 166.839  0.00  0.00    +0.000 NA
ATOM      4  N   UNL     1     123.369 144.065 168.048  0.00  0.00    +0.000 NA
ATOM      5  N   UNL     1     124.171 144.649 167.366  0.00  0.00    +0.000 NA
ATOM      6  C   UNL     1     123.708 144.051 166.222  0.00  0.00    +0.000 C 
ATOM      7  C   UNL     1     124.470 144.799 166.720  0.00  0.00    +0.000 C 
ENDBRANCH   1   4
BRANCH   1   8
ATOM      8  C   UNL     1     122.559 143.485 168.731  0.00  0.00    +0.000 A 
ATOM      9  C   UNL     1     121.839 143.590 168.843  0.00  0.00    +0.000 A 
ATOM     10  C   UNL     1     122.961 143.257 169.239  0.00  0.00    +0.000 A 
ATOM     11  C   UNL     1     121.550 143.465 169.450  0.00  0.00    +0.000 A 
ATOM     12  C   UNL     1     122.655 143.119 169.900  0.00  0.00    +0.000 A 
ATOM     13  C   UNL     1     121.966 143.219 170.008  0.00  0.00    +0.000 A 
ENDBRANCH   1   8
TORSDOF 2
ENDMDL
MODEL 3
REMARK VINA RESULT:      -8.6      2.161      3.237
REMARK  Name = 
REMARK  2 active torsions:
REMARK  status: ('A' for Active; 'I' for Inactive)
REMARK    1  A    between atoms: N_3  and  C_5
REMARK    2  A    between atoms: C_5  and  C_6
REMARK                            x       y       z     vdW  Elec       q    Type
REMARK                         _______ _______ _______ _____ _____    ______ ____
ROOT
ATOM      1  C   UNL     1     123.576 143.349 169.236  0.00  0.00    +0.000 C 
ENDROOT
BRANCH   1   4
ATOM      2  C   UNL     1     124.622 143.630 169.781  0.00  0.00    +0.000 C 
ATOM      3  N   UNL     1     124.995 143.279 169.304  0.00  0.00    +0.000 NA
ATOM      4  N   UNL     1     123.925 143.666 169.751  0.00  0.00    +0.000 NA
ATOM      5  N   UNL     1     124.960 143.949 170.298  0.00  0.00    +0.000 NA
ATOM      6  C   UNL     1     125.698 143.263 169.366  0.00  0.00    +0.000 C 
ATOM      7  C   UNL     1     125.686 143.921 170.344  0.00  0.00    +0.000 C 
ENDBRANCH   1   4
BRANCH   1   8
ATOM      8  C   UNL     1     122.890 143.405 169.186  0.00  0.00    +0.000 A 
ATOM      9  C   UNL     1     122.580 143.658 168.568  0.00  0.00    +0.000 A 
ATOM     10  C   UNL     1     122.500 143.220 169.722  0.00  0.00    +0.000 A 
ATOM     11  C   UNL     1     121.901 143.717 168.508  0.00  0.00    +0.000 A 
ATOM     12  C   UNL     1     121.764 143.281 169.664  0.00  0.00    +0.000 A 
ATOM     13  C   UNL     1     121.466 143.524 169.073  0.00  0.00    +0.000 A 
ENDBRANCH   1   8
TORSDOF 2
ENDMDL
MODEL 4
REMARK VINA RESULT:      -8.4     37.405     38.760
REMARK  Name = 
REMARK  2 active torsions:
REMARK  status: ('A' for Active; 'I' for Inactive)
REMARK    1  A    between atoms: N_3  and  C_5
REMARK    2  A    between atoms: C_5  and  C_6
REMARK                            x       y       z     vdW  Elec       q    Type
REMARK                         _______ _______ _______ _____ _____    ______ ____
ROOT
ATOM      1  C   UNL     1     135.223 121.360 196.421  0.00  0.00    +0.000 C 
ENDROOT
BRANCH   1   4
ATOM      2  C   UNL     1     134.027 121.392 196.226  0.00  0.00    +0.000 C 
ATOM      3  N   UNL     1     134.041 122.080 196.095  0.00  0.00    +0.000 NA
ATOM      4  N   UNL     1     134.606 121.036 196.386  0.00  0.00    +0.000 NA
ATOM      5  N   UNL     1     133.418 121.061 196.194  0.00  0.00    +0.000 NA
ATOM      6  C   UNL     1     133.436 122.408 195.937  0.00  0.00    +0.000 C 
ATOM      7  C   UNL     1     132.805 121.417 196.029  0.00  0.00    +0.000 C 
ENDBRANCH   1   4
BRANCH   1   8
ATOM      8  C   UNL     1     135.798 121.012 196.578  0.00  0.00    +0.000 A 
ATOM      9  C   UNL     1     136.141 120.607 196.067  0.00  0.00    +0.000 A 
ATOM     10  C   UNL     1     136.046 121.049 197.218  0.00  0.00    +0.000 A 
ATOM     11  C   UNL     1     136.711 120.259 196.213  0.00  0.00    +0.000 A 
ATOM     12  C   UNL     1     136.663 120.674 197.383  0.00  0.00    +0.000 A 
ATOM     13  C   UNL     1     136.992 120.286 196.895  0.00  0.00    +0.000 A 
ENDBRANCH   1   8
TORSDOF 2
ENDMDL
MODEL 5
REMARK VINA RESULT:      -8.1     31.297     32.286
REMARK  Name = 
REMARK  2 active torsions:
REMARK  status: ('A' for Active; 'I' for Inactive)
REMARK    1  A    between atoms: N_3  and  C_5
REMARK    2  A    between atoms: C_5  and  C_6
REMARK                            x       y       z     vdW  Elec       q    Type
REMARK                         _______ _______ _______ _____ _____    ______ ____
ROOT
ATOM      1  C   UNL     1     146.757 125.251 177.228  0.00  0.00    +0.000 C 
ENDROOT
BRANCH   1   4
ATOM      2  C   UNL     1     145.556 125.309 177.075  0.00  0.00    +0.000 C 
ATOM      3  N   UNL     1     145.518 125.926 177.405  0.00  0.00    +0.000 NA
ATOM      4  N   UNL     1     146.163 124.976 176.987  0.00  0.00    +0.000 NA
ATOM      5  N   UNL     1     144.971 125.026 176.831  0.00  0.00    +0.000 NA
ATOM      6  C   UNL     1     144.887 126.234 177.476  0.00  0.00    +0.000 C 
ATOM      7  C   UNL     1     144.330 125.361 176.915  0.00  0.00    +0.000 C 
ENDBRANCH   1   4
BRANCH   1   8
ATOM      8  C   UNL     1     147.362 124.932 177.131  0.00  0.00    +0.000 A 
ATOM      9  C   UNL     1     147.554 124.360 177.552  0.00  0.00    +0.000 A 
ATOM     10  C   UNL     1     147.781 125.157 176.635  0.00  0.00    +0.000 A 
ATOM     11  C   UNL     1     148.151 124.037 177.464  0.00  0.00    +0.000 A 
ATOM     12  C   UNL     1     148.429 124.812 176.533  0.00  0.00    +0.000 A 
ATOM     13  C   UNL     1     148.614 124.264 176.936  0.00  0.00    +0.000 A 
ENDBRANCH   1   8
TORSDOF 2
ENDMDL
MODEL 6
REMARK VINA RESULT:      -8.1     30.453     31.419
REMARK  Name = 
REMARK  2 active torsions:
REMARK  status: ('A' for Active; 'I' for Inactive)
REMARK    1  A    between atoms: N_3  and  C_5
REMARK    2  A    between atoms: C_5  and  C_6
REMARK                            x       y       z     vdW  Elec       q    Type
REMARK                         _______ _______ _______ _____ _____    ______ ____
ROOT
ATOM      1  C   UNL     1     141.542 127.416 185.996  0.00  0.00    +0.000 C 
ENDROOT
BRANCH   1   4
ATOM      2  C   UNL     1     141.718 126.733 185.010  0.00  0.00    +0.000 C 
ATOM      3  N   UNL     1     141.040 126.761 184.838  0.00  0.00    +0.000 NA
ATOM      4  N   UNL     1     141.967 127.054 185.578  0.00  0.00    +0.000 NA
ATOM      5  N   UNL     1     142.150 126.375 184.601  0.00  0.00    +0.000 NA
ATOM      6  C   UNL     1     140.823 126.424 184.257  0.00  0.00    +0.000 C 
ATOM      7  C   UNL     1     141.907 126.035 184.005  0.00  0.00    +0.000 C 
ENDBRANCH   1   4
BRANCH   1   8
ATOM      8  C   UNL     1     141.785 127.740 186.555  0.00  0.00    +0.000 A 
ATOM      9  C   UNL     1     141.674 128.463 186.645  0.00  0.00    +0.000 A 
ATOM     10  C   UNL     1     142.131 127.379 187.026  0.00  0.00    +0.000 A 
ATOM     11  C   UNL     1     141.910 128.794 187.195  0.00  0.00    +0.000 A 
ATOM     12  C   UNL     1     142.390 127.731 187.625  0.00  0.00    +0.000 A 
ATOM     13  C   UNL     1     142.284 128.423 187.712  0.00  0.00    +0.000 A 
ENDBRANCH   1   8
TORSDOF 2
ENDMDL
MODEL 7
REMARK VINA RESULT:      -8.0     35.127     36.279
REMARK  Name = 
REMARK  2 active torsions:
REMARK  status: ('A' for Active; 'I' for Inactive)
REMARK    1  A    between atoms: N_3  and  C_5
REMARK    2  A    between atoms: C_5  and  C_6
REMARK                            x       y       z     vdW  Elec       q    Type
REMARK                         _______ _______ _______ _____ _____    ______ ____
ROOT
ATOM      1  C   UNL     1     109.571 131.793 199.562  0.00  0.00    +0.000 C 
ENDROOT
BRANCH   1   4
ATOM      2  C   UNL     1     108.890 131.276 198.703  0.00  0.00    +0.000 C 
ATOM      3  N   UNL     1     108.802 131.885 198.370  0.00  0.00    +0.000 NA
ATOM      4  N   UNL     1     109.267 131.228 199.289  0.00  0.00    +0.000 NA
ATOM      5  N   UNL     1     108.592 130.707 198.439  0.00  0.00    +0.000 NA
ATOM      6  C   UNL     1     108.414 131.897 197.780  0.00  0.00    +0.000 C 
ATOM      7  C   UNL     1     108.196 130.740 197.830  0.00  0.00    +0.000 C 
ENDBRANCH   1   4
BRANCH   1   8
ATOM      8  C   UNL     1     109.950 131.749 200.138  0.00  0.00    +0.000 A 
ATOM      9  C   UNL     1     110.679 131.659 200.099  0.00  0.00    +0.000 A 
ATOM     10  C   UNL     1     109.636 131.791 200.748  0.00  0.00    +0.000 A 
ATOM     11  C   UNL     1     111.064 131.615 200.663  0.00  0.00    +0.000 A 
ATOM     12  C   UNL     1     110.045 131.743 201.363  0.00  0.00    +0.000 A 
ATOM     13  C   UNL     1     110.744 131.657 201.327  0.00  0.00    +0.000 A 
ENDBRANCH   1   8
TORSDOF 2
ENDMDL
MODEL 8
REMARK VINA RESULT:      -7.8     36.936     38.191
REMARK  Name = 
REMARK  2 active torsions:
REMARK  status: ('A' for Active; 'I' for Inactive)
REMARK    1  A    between atoms: N_3  and  C_5
REMARK    2  A    between atoms: C_5  and  C_6
REMARK                            x       y       z     vdW  Elec       q    Type
REMARK                         _______ _______ _______ _____ _____    ______ ____
ROOT
ATOM      1  C   UNL     1     106.031 126.871 198.132  0.00  0.00    +0.000 C 
ENDROOT
BRANCH   1   4
ATOM      2  C   UNL     1     105.894 128.021 197.774  0.00  0.00    +0.000 C 
ATOM      3  N   UNL     1     105.321 127.865 197.403  0.00  0.00    +0.000 NA
ATOM      4  N   UNL     1     106.245 127.535 198.132  0.00  0.00    +0.000 NA
ATOM      5  N   UNL     1     106.116 128.680 197.781  0.00  0.00    +0.000 NA
ATOM      6  C   UNL     1     104.991 128.382 197.053  0.00  0.00    +0.000 C 
ATOM      7  C   UNL     1     105.761 129.198 197.413  0.00  0.00    +0.000 C 
ENDBRANCH   1   4
BRANCH   1   8
ATOM      8  C   UNL     1     106.376 126.387 198.482  0.00  0.00    +0.000 A 
ATOM      9  C   UNL     1     106.094 126.100 199.099  0.00  0.00    +0.000 A 
ATOM     10  C   UNL     1     106.986 126.176 198.247  0.00  0.00    +0.000 A 
ATOM     11  C   UNL     1     106.427 125.620 199.454  0.00  0.00    +0.000 A 
ATOM     12  C   UNL     1     107.353 125.656 198.626  0.00  0.00    +0.000 A 
ATOM     13  C   UNL     1     107.084 125.381 199.217  0.00  0.00    +0.000 A 
ENDBRANCH   1   8
TORSDOF 2
ENDMDL
MODEL 9
REMARK VINA RESULT:      -7.8      0.748      3.068
REMARK  Name = 
REMARK  2 active torsions:
REMARK  status: ('A' for Active; 'I' for Inactive)
REMARK    1  A    between atoms: N_3  and  C_5
REMARK    2  A    between atoms: C_5  and  C_6
REMARK                            x       y       z     vdW  Elec       q    Type
REMARK                         _______ _______ _______ _____ _____    ______ ____
ROOT
ATOM      1  C   UNL     1     122.412 143.924 167.433  0.00  0.00    +0.000 C 
ENDROOT
BRANCH   1   4
ATOM      2  C   UNL     1     122.163 143.628 168.581  0.00  0.00    +0.000 C 
ATOM      3  N   UNL     1     122.766 143.277 168.649  0.00  0.00    +0.000 NA
ATOM      4  N   UNL     1     121.987 143.946 167.985  0.00  0.00    +0.000 NA
ATOM      5  N   UNL     1     121.733 143.656 169.126  0.00  0.00    +0.000 NA
ATOM      6  C   UNL     1     122.911 142.967 169.266  0.00  0.00    +0.000 C 
ATOM      7  C   UNL     1     121.902 143.329 169.754  0.00  0.00    +0.000 C 
ENDBRANCH   1   4
BRANCH   1   8
ATOM      8  C   UNL     1     122.252 144.254 166.848  0.00  0.00    +0.000 A 
ATOM      9  C   UNL     1     121.550 144.313 166.634  0.00  0.00    +0.000 A 
ATOM     10  C   UNL     1     122.757 144.527 166.469  0.00  0.00    +0.000 A 
ATOM     11  C   UNL     1     121.380 144.638 166.056  0.00  0.00    +0.000 A 
ATOM     12  C   UNL     1     122.580 144.880 165.842  0.00  0.00    +0.000 A 
ATOM     13  C   UNL     1     121.908 144.937 165.636  0.00  0.00    +0.000 A 
ENDBRANCH   1   8
TORSDOF 2
ENDMDL
MODEL 10
REMARK VINA RESULT:      -7.7     32.412     32.908
REMARK  Name = 
REMARK  2 active torsions:
REMARK  status: ('A' for Active; 'I' for Inactive)
REMARK    1  A    between atoms: N_3  and  C_5
REMARK    2  A    between atoms: C_5  and  C_6
REMARK                            x       y       z     vdW  Elec       q    Type
REMARK                         _______ _______ _______ _____ _____    ______ ____
ROOT
ATOM      1  C   UNL     1     139.081 116.019 163.470  0.00  0.00    +0.000 C 
ENDROOT
BRANCH   1   4
ATOM      2  C   UNL     1     140.284 115.943 163.339  0.00  0.00    +0.000 C 
ATOM      3  N   UNL     1     140.227 115.413 162.885  0.00  0.00    +0.000 NA
ATOM      4  N   UNL     1     139.723 116.243 163.628  0.00  0.00    +0.000 NA
ATOM      5  N   UNL     1     140.919 116.173 163.503  0.00  0.00    +0.000 NA
ATOM      6  C   UNL     1     140.816 115.135 162.612  0.00  0.00    +0.000 C 
ATOM      7  C   UNL     1     141.513 115.872 163.210  0.00  0.00    +0.000 C 
ENDBRANCH   1   4
BRANCH   1   8
ATOM      8  C   UNL     1     138.524 116.317 163.747  0.00  0.00    +0.000 A 
ATOM      9  C   UNL     1     138.164 116.846 163.383  0.00  0.00    +0.000 A 
ATOM     10  C   UNL     1     138.310 116.112 164.367  0.00  0.00    +0.000 A 
ATOM     11  C   UNL     1     137.610 117.148 163.649  0.00  0.00    +0.000 A 
ATOM     12  C   UNL     1     137.711 116.434 164.661  0.00  0.00    +0.000 A 
ATOM     13  C   UNL     1     137.365 116.941 164.314  0.00  0.00    +0.000 A 
ENDBRANCH   1   8
TORSDOF 2
ENDMDL
MODEL 11
REMARK VINA RESULT:      -7.7     36.784     37.919
REMARK  Name = 
REMARK  2 active torsions:
REMARK  status: ('A' for Active; 'I' for Inactive)
REMARK    1  A    between atoms: N_3  and  C_5
REMARK    2  A    between atoms: C_5  and  C_6
REMARK                            x       y       z     vdW  Elec       q    Type
REMARK                         _______ _______ _______ _____ _____    ______ ____
ROOT
ATOM      1  C   UNL     1     106.670 125.537 197.085  0.00  0.00    +0.000 C 
ENDROOT
BRANCH   1   4
ATOM      2  C   UNL     1     105.820 125.594 196.224  0.00  0.00    +0.000 C 
ATOM      3  N   UNL     1     106.265 125.367 195.733  0.00  0.00    +0.000 NA
ATOM      4  N   UNL     1     106.016 125.679 196.888  0.00  0.00    +0.000 NA
ATOM      5  N   UNL     1     105.166 125.738 196.038  0.00  0.00    +0.000 NA
ATOM      6  C   UNL     1     106.032 125.293 195.071  0.00  0.00    +0.000 C 
ATOM      7  C   UNL     1     104.945 125.655 195.349  0.00  0.00    +0.000 C 
ENDBRANCH   1   4
BRANCH   1   8
ATOM      8  C   UNL     1     106.868 125.612 197.743  0.00  0.00    +0.000 A 
ATOM      9  C   UNL     1     107.151 126.250 197.976  0.00  0.00    +0.000 A 
ATOM     10  C   UNL     1     106.795 125.083 198.175  0.00  0.00    +0.000 A 
ATOM     11  C   UNL     1     107.349 126.335 198.626  0.00  0.00    +0.000 A 
ATOM     12  C   UNL     1     107.008 125.168 198.880  0.00  0.00    +0.000 A 
ATOM     13  C   UNL     1     107.279 125.778 199.105  0.00  0.00    +0.000 A 
ENDBRANCH   1   8
TORSDOF 2
ENDMDL
MODEL 12
REMARK VINA RESULT:      -7.7     34.542     35.037
REMARK  Name = 
REMARK  2 active torsions:
REMARK  status: ('A' for Active; 'I' for Inactive)
REMARK    1  A    between atoms: N_3  and  C_5
REMARK    2  A    between atoms: C_5  and  C_6
REMARK                            x       y       z     vdW  Elec       q    Type
REMARK                         _______ _______ _______ _____ _____    ______ ____
ROOT
ATOM      1  C   UNL     1     141.123 115.021 163.728  0.00  0.00    +0.000 C 
ENDROOT
BRANCH   1   4
ATOM      2  C   UNL     1     140.450 114.896 162.728  0.00  0.00    +0.000 C 
ATOM      3  N   UNL     1     139.916 115.250 163.011  0.00  0.00    +0.000 NA
ATOM      4  N   UNL     1     141.043 114.782 163.077  0.00  0.00    +0.000 NA
ATOM      5  N   UNL     1     140.380 114.654 162.080  0.00  0.00    +0.000 NA
ATOM      6  C   UNL     1     139.330 115.346 162.629  0.00  0.00    +0.000 C 
ATOM      7  C   UNL     1     139.768 114.764 161.702  0.00  0.00    +0.000 C 
ENDBRANCH   1   4
BRANCH   1   8
ATOM      8  C   UNL     1     141.706 114.907 164.079  0.00  0.00    +0.000 A 
ATOM      9  C   UNL     1     141.785 114.296 164.482  0.00  0.00    +0.000 A 
ATOM     10  C   UNL     1     142.211 115.372 164.046  0.00  0.00    +0.000 A 
ATOM     11  C   UNL     1     142.359 114.174 164.834  0.00  0.00    +0.000 A 
ATOM     12  C   UNL     1     142.836 115.246 164.424  0.00  0.00    +0.000 A 
ATOM     13  C   UNL     1     142.913 114.661 164.811  0.00  0.00    +0.000 A 
ENDBRANCH   1   8
TORSDOF 2
ENDMDL
MODEL 13
REMARK VINA RESULT:      -7.6      1.776      2.676
REMARK  Name = 
REMARK  2 active torsions:
REMARK  status: ('A' for Active; 'I' for Inactive)
REMARK    1  A    between atoms: N_3  and  C_5
REMARK    2  A    between atoms: C_5  and  C_6
REMARK                            x       y       z     vdW  Elec       q    Type
REMARK                         _______ _______ _______ _____ _____    ______ ____
ROOT
ATOM      1  C   UNL     1     123.739 143.716 168.951  0.00  0.00    +0.000 C 
ENDROOT
BRANCH   1   4
ATOM      2  C   UNL     1     122.535 143.579 168.980  0.00  0.00    +0.000 C 
ATOM      3  N   UNL     1     122.465 143.834 168.332  0.00  0.00    +0.000 NA
ATOM      4  N   UNL     1     123.159 143.520 169.287  0.00  0.00    +0.000 NA
ATOM      5  N   UNL     1     121.964 143.381 169.322  0.00  0.00    +0.000 NA
ATOM      6  C   UNL     1     121.818 143.880 168.053  0.00  0.00    +0.000 C 
ATOM      7  C   UNL     1     121.306 143.436 169.017  0.00  0.00    +0.000 C 
ENDBRANCH   1   4
BRANCH   1   8
ATOM      8  C   UNL     1     124.360 143.641 169.243  0.00  0.00    +0.000 A 
ATOM      9  C   UNL     1     124.888 143.256 168.904  0.00  0.00    +0.000 A 
ATOM     10  C   UNL     1     124.478 143.932 169.855  0.00  0.00    +0.000 A 
ATOM     11  C   UNL     1     125.507 143.177 169.184  0.00  0.00    +0.000 A 
ATOM     12  C   UNL     1     125.146 143.850 170.164  0.00  0.00    +0.000 A 
ATOM     13  C   UNL     1     125.653 143.482 169.840  0.00  0.00    +0.000 A 
ENDBRANCH   1   8
TORSDOF 2
ENDMDL
MODEL 14
REMARK VINA RESULT:      -7.6     35.642     36.206
REMARK  Name = 
REMARK  2 active torsions:
REMARK  status: ('A' for Active; 'I' for Inactive)
REMARK    1  A    between atoms: N_3  and  C_5
REMARK    2  A    between atoms: C_5  and  C_6
REMARK                            x       y       z     vdW  Elec       q    Type
REMARK                         _______ _______ _______ _____ _____    ______ ____
ROOT
ATOM      1  C   UNL     1     141.460 113.450 164.518  0.00  0.00    +0.000 C 
ENDROOT
BRANCH   1   4
ATOM      2  C   UNL     1     140.640 112.734 165.051  0.00  0.00    +0.000 C 
ATOM      3  N   UNL     1     140.551 112.359 164.466  0.00  0.00    +0.000 NA
ATOM      4  N   UNL     1     141.086 113.270 165.079  0.00  0.00    +0.000 NA
ATOM      5  N   UNL     1     140.273 112.562 165.615  0.00  0.00    +0.000 NA
ATOM      6  C   UNL     1     140.091 111.823 164.474  0.00  0.00    +0.000 C 
ATOM      7  C   UNL     1     139.804 112.006 165.601  0.00  0.00    +0.000 C 
ENDBRANCH   1   4
BRANCH   1   8
ATOM      8  C   UNL     1     141.896 113.985 164.539  0.00  0.00    +0.000 A 
ATOM      9  C   UNL     1     142.522 113.940 164.924  0.00  0.00    +0.000 A 
ATOM     10  C   UNL     1     141.738 114.559 164.196  0.00  0.00    +0.000 A 
ATOM     11  C   UNL     1     142.962 114.464 164.952  0.00  0.00    +0.000 A 
ATOM     12  C   UNL     1     142.209 115.130 164.221  0.00  0.00    +0.000 A 
ATOM     13  C   UNL     1     142.809 115.089 164.589  0.00  0.00    +0.000 A 
ENDBRANCH   1   8
TORSDOF 2
ENDMDL
MODEL 15
REMARK VINA RESULT:      -7.6     30.877     31.878
REMARK  Name = 
REMARK  2 active torsions:
REMARK  status: ('A' for Active; 'I' for Inactive)
REMARK    1  A    between atoms: N_3  and  C_5
REMARK    2  A    between atoms: C_5  and  C_6
REMARK                            x       y       z     vdW  Elec       q    Type
REMARK                         _______ _______ _______ _____ _____    ______ ____
ROOT
ATOM      1  C   UNL     1     146.178 125.430 176.940  0.00  0.00    +0.000 C 
ENDROOT
BRANCH   1   4
ATOM      2  C   UNL     1     147.195 124.813 177.172  0.00  0.00    +0.000 C 
ATOM      3  N   UNL     1     147.571 125.222 176.747  0.00  0.00    +0.000 NA
ATOM      4  N   UNL     1     146.511 124.913 177.269  0.00  0.00    +0.000 NA
ATOM      5  N   UNL     1     147.517 124.294 177.505  0.00  0.00    +0.000 NA
ATOM      6  C   UNL     1     148.261 125.091 176.673  0.00  0.00    +0.000 C 
ATOM      7  C   UNL     1     148.229 124.177 177.415  0.00  0.00    +0.000 C 
ENDBRANCH   1   4
BRANCH   1   8
ATOM      8  C   UNL     1     145.500 125.530 177.029  0.00  0.00    +0.000 A 
ATOM      9  C   UNL     1     145.257 126.111 177.410  0.00  0.00    +0.000 A 
ATOM     10  C   UNL     1     145.059 125.080 176.757  0.00  0.00    +0.000 A 
ATOM     11  C   UNL     1     144.587 126.219 177.504  0.00  0.00    +0.000 A 
ATOM     12  C   UNL     1     144.333 125.191 176.855  0.00  0.00    +0.000 A 
ATOM     13  C   UNL     1     144.097 125.747 177.219  0.00  0.00    +0.000 A 
ENDBRANCH   1   8
TORSDOF 2
ENDMDL
MODEL 16
REMARK VINA RESULT:      -7.6     29.319     30.534
REMARK  Name = 
REMARK  2 active torsions:
REMARK  status: ('A' for Active; 'I' for Inactive)
REMARK    1  A    between atoms: N_3  and  C_5
REMARK    2  A    between atoms: C_5  and  C_6
REMARK                            x       y       z     vdW  Elec       q    Type
REMARK                         _______ _______ _______ _____ _____    ______ ____
ROOT
ATOM      1  C   UNL     1     141.412 128.236 185.716  0.00  0.00    +0.000 C 
ENDROOT
BRANCH   1   4
ATOM      2  C   UNL     1     141.354 128.766 184.627  0.00  0.00    +0.000 C 
ATOM      3  N   UNL     1     140.795 128.385 184.444  0.00  0.00    +0.000 NA
ATOM      4  N   UNL     1     141.659 128.694 185.251  0.00  0.00    +0.000 NA
ATOM      5  N   UNL     1     141.607 129.224 184.172  0.00  0.00    +0.000 NA
ATOM      6  C   UNL     1     140.512 128.484 183.804  0.00  0.00    +0.000 C 
ATOM      7  C   UNL     1     141.301 129.311 183.517  0.00  0.00    +0.000 C 
ENDBRANCH   1   4
BRANCH   1   8
ATOM      8  C   UNL     1     141.713 128.160 186.333  0.00  0.00    +0.000 A 
ATOM      9  C   UNL     1     141.513 128.586 186.900  0.00  0.00    +0.000 A 
ATOM     10  C   UNL     1     142.199 127.681 186.410  0.00  0.00    +0.000 A 
ATOM     11  C   UNL     1     141.804 128.518 187.516  0.00  0.00    +0.000 A 
ATOM     12  C   UNL     1     142.519 127.603 187.074  0.00  0.00    +0.000 A 
ATOM     13  C   UNL     1     142.329 128.010 187.618  0.00  0.00    +0.000 A 
ENDBRANCH   1   8
TORSDOF 2
ENDMDL
MODEL 17
REMARK VINA RESULT:      -7.5     37.543     38.037
REMARK  Name = 
REMARK  2 active torsions:
REMARK  status: ('A' for Active; 'I' for Inactive)
REMARK    1  A    between atoms: N_3  and  C_5
REMARK    2  A    between atoms: C_5  and  C_6
REMARK                            x       y       z     vdW  Elec       q    Type
REMARK                         _______ _______ _______ _____ _____    ______ ____
ROOT
ATOM      1  C   UNL     1     106.395 128.106 136.825  0.00  0.00    +0.000 C 
ENDROOT
BRANCH   1   4
ATOM      2  C   UNL     1     107.041 128.955 136.249  0.00  0.00    +0.000 C 
ATOM      3  N   UNL     1     106.823 128.732 135.622  0.00  0.00    +0.000 NA
ATOM      4  N   UNL     1     106.832 128.650 136.841  0.00  0.00    +0.000 NA
ATOM      5  N   UNL     1     107.476 129.495 136.276  0.00  0.00    +0.000 NA
ATOM      6  C   UNL     1     107.055 129.064 135.044  0.00  0.00    +0.000 C 
ATOM      7  C   UNL     1     107.703 129.824 135.668  0.00  0.00    +0.000 C 
ENDBRANCH   1   4
BRANCH   1   8
ATOM      8  C   UNL     1     106.197 127.792 137.407  0.00  0.00    +0.000 A 
ATOM      9  C   UNL     1     106.438 127.115 137.565  0.00  0.00    +0.000 A 
ATOM     10  C   UNL     1     105.772 128.121 137.836  0.00  0.00    +0.000 A 
ATOM     11  C   UNL     1     106.248 126.794 138.139  0.00  0.00    +0.000 A 
ATOM     12  C   UNL     1     105.563 127.780 138.459  0.00  0.00    +0.000 A 
ATOM     13  C   UNL     1     105.792 127.131 138.612  0.00  0.00    +0.000 A 
ENDBRANCH   1   8
TORSDOF 2
ENDMDL
MODEL 18
REMARK VINA RESULT:      -7.4     37.397     38.331
REMARK  Name = 
REMARK  2 active torsions:
REMARK  status: ('A' for Active; 'I' for Inactive)
REMARK    1  A    between atoms: N_3  and  C_5
REMARK    2  A    between atoms: C_5  and  C_6
REMARK                            x       y       z     vdW  Elec       q    Type
REMARK                         _______ _______ _______ _____ _____    ______ ____
ROOT
ATOM      1  C   UNL     1     108.850 129.640 135.165  0.00  0.00    +0.000 C 
ENDROOT
BRANCH   1   4
ATOM      2  C   UNL     1     109.377 128.651 135.627  0.00  0.00    +0.000 C 
ATOM      3  N   UNL     1     109.999 128.971 135.672  0.00  0.00    +0.000 NA
ATOM      4  N   UNL     1     108.812 128.977 135.379  0.00  0.00    +0.000 NA
ATOM      5  N   UNL     1     109.329 127.991 135.838  0.00  0.00    +0.000 NA
ATOM      6  C   UNL     1     110.549 128.611 135.928  0.00  0.00    +0.000 C 
ATOM      7  C   UNL     1     109.908 127.637 136.099  0.00  0.00    +0.000 C 
ENDBRANCH   1   4
BRANCH   1   8
ATOM      8  C   UNL     1     108.295 129.965 134.916  0.00  0.00    +0.000 A 
ATOM      9  C   UNL     1     108.102 129.887 134.210  0.00  0.00    +0.000 A 
ATOM     10  C   UNL     1     107.925 130.363 135.338  0.00  0.00    +0.000 A 
ATOM     11  C   UNL     1     107.553 130.206 133.954  0.00  0.00    +0.000 A 
ATOM     12  C   UNL     1     107.329 130.710 135.067  0.00  0.00    +0.000 A 
ATOM     13  C   UNL     1     107.143 130.637 134.391  0.00  0.00    +0.000 A 
ENDBRANCH   1   8
TORSDOF 2
ENDMDL
MODEL 19
REMARK VINA RESULT:      -7.4     36.297     36.827
REMARK  Name = 
REMARK  2 active torsions:
REMARK  status: ('A' for Active; 'I' for Inactive)
REMARK    1  A    between atoms: N_3  and  C_5
REMARK    2  A    between atoms: C_5  and  C_6
REMARK                            x       y       z     vdW  Elec       q    Type
REMARK                         _______ _______ _______ _____ _____    ______ ____
ROOT
ATOM      1  C   UNL     1     105.114 127.405 196.360  0.00  0.00    +0.000 C 
ENDROOT
BRANCH   1   4
ATOM      2  C   UNL     1     105.185 126.632 195.430  0.00  0.00    +0.000 C 
ATOM      3  N   UNL     1     105.021 126.086 195.837  0.00  0.00    +0.000 NA
ATOM      4  N   UNL     1     105.232 127.280 195.684  0.00  0.00    +0.000 NA
ATOM      5  N   UNL     1     105.305 126.518 194.755  0.00  0.00    +0.000 NA
ATOM      6  C   UNL     1     104.983 125.444 195.546  0.00  0.00    +0.000 C 
ATOM      7  C   UNL     1     105.261 125.848 194.475  0.00  0.00    +0.000 C 
ENDBRANCH   1   4
BRANCH   1   8
ATOM      8  C   UNL     1     105.160 128.045 196.616  0.00  0.00    +0.000 A 
ATOM      9  C   UNL     1     105.741 128.241 197.025  0.00  0.00    +0.000 A 
ATOM     10  C   UNL     1     104.658 128.495 196.485  0.00  0.00    +0.000 A 
ATOM     11  C   UNL     1     105.797 128.872 197.284  0.00  0.00    +0.000 A 
ATOM     12  C   UNL     1     104.712 129.180 196.762  0.00  0.00    +0.000 A 
ATOM     13  C   UNL     1     105.267 129.369 197.153  0.00  0.00    +0.000 A 
ENDBRANCH   1   8
TORSDOF 2
ENDMDL
MODEL 20
REMARK VINA RESULT:      -7.3     35.873     36.521
REMARK  Name = 
REMARK  2 active torsions:
REMARK  status: ('A' for Active; 'I' for Inactive)
REMARK    1  A    between atoms: N_3  and  C_5
REMARK    2  A    between atoms: C_5  and  C_6
REMARK                            x       y       z     vdW  Elec       q    Type
REMARK                         _______ _______ _______ _____ _____    ______ ____
ROOT
ATOM      1  C   UNL     1     107.002 128.767 197.539  0.00  0.00    +0.000 C 
ENDROOT
BRANCH   1   4
ATOM      2  C   UNL     1     106.311 129.681 197.143  0.00  0.00    +0.000 C 
ATOM      3  N   UNL     1     106.613 130.134 197.583  0.00  0.00    +0.000 NA
ATOM      4  N   UNL     1     106.500 129.009 197.119  0.00  0.00    +0.000 NA
ATOM      5  N   UNL     1     105.810 129.912 196.720  0.00  0.00    +0.000 NA
ATOM      6  C   UNL     1     106.397 130.806 197.579  0.00  0.00    +0.000 C 
ATOM      7  C   UNL     1     105.602 130.609 196.733  0.00  0.00    +0.000 C 
ENDBRANCH   1   4
BRANCH   1   8
ATOM      8  C   UNL     1     107.198 128.105 197.514  0.00  0.00    +0.000 A 
ATOM      9  C   UNL     1     107.720 127.889 197.043  0.00  0.00    +0.000 A 
ATOM     10  C   UNL     1     106.898 127.653 197.936  0.00  0.00    +0.000 A 
ATOM     11  C   UNL     1     107.921 127.236 197.010  0.00  0.00    +0.000 A 
ATOM     12  C   UNL     1     107.111 126.944 197.906  0.00  0.00    +0.000 A 
ATOM     13  C   UNL     1     107.611 126.735 197.455  0.00  0.00    +0.000 A 
ENDBRANCH   1   8
TORSDOF 2
ENDMDL
