
     RDKit          2D

 20 22  0  0  0  0  0  0  0  0999 V2000
    5.6917   -5.3125    0.0000 C   0  0  0  0  0  0  0  0  0  0  0  0
    4.4667   -5.3125    0.0000 N   0  0  0  0  0  0  0  0  0  0  0  0
    6.3125   -4.2542    0.0000 N   0  0  0  0  0  0  0  0  0  0  0  0
    3.8500   -5.6625    0.0000 C   0  0  0  0  0  0  0  0  0  0  0  0
    6.9292   -5.3125    0.0000 C   0  0  0  0  0  0  0  0  0  0  0  0
    5.6917   -4.6125    0.0000 C   0  0  0  0  0  0  0  0  0  0  0  0
    6.9292   -4.6125    0.0000 N   0  0  0  0  0  0  0  0  0  0  0  0
    6.3125   -5.6625    0.0000 C   0  0  0  0  0  0  0  0  0  0  0  0
    5.0792   -5.6625    0.0000 C   0  0  0  0  0  0  0  0  0  0  0  0
    7.5417   -5.6625    0.0000 N   0  0  0  0  0  0  0  0  0  0  0  0
    5.0792   -4.2542    0.0000 C   0  0  0  0  0  0  0  0  0  0  0  0
    4.4667   -4.6125    0.0000 C   0  0  0  0  0  0  0  0  0  0  0  0
    3.8375   -6.3792    0.0000 O   0  0  0  0  0  0  0  0  0  0  0  0
    3.2292   -5.3000    0.0000 C   0  0  0  0  0  0  0  0  0  0  0  0
    8.1750   -5.6625    0.0000 N   0  0  0  0  0  0  0  0  0  0  0  0
    3.2292   -4.5625    0.0000 C   0  0  0  0  0  0  0  0  0  0  0  0
    2.5917   -5.6417    0.0000 C   0  0  0  0  0  0  0  0  0  0  0  0
    2.6167   -4.1875    0.0000 C   0  0  0  0  0  0  0  0  0  0  0  0
    1.9667   -5.2792    0.0000 C   0  0  0  0  0  0  0  0  0  0  0  0
    1.9667   -4.5500    0.0000 C   0  0  0  0  0  0  0  0  0  0  0  0
  2  9  1  0
  3  6  2  0
  4  2  1  0
  5  8  1  0
  6  1  1  0
  7  5  1  0
  8  1  2  0
  9  1  1  0
 10  5  2  0
 11  6  1  0
 12  2  1  0
 13  4  2  0
 14  4  1  0
 15 10  1  0
 16 14  2  0
 17 14  1  0
 18 16  1  0
 19 17  2  0
 20 18  2  0
 12 11  1  0
  7  3  1  0
 19 20  1  0
M  END


> <chembl_id>
CHEMBL254193

> <chembl_pref_name>
ENDRALAZINE
