REMARK  Name = 
REMARK  11 active torsions:
REMARK  status: ('A' for Active; 'I' for Inactive)
REMARK    1  A    between atoms: C_5  and  O_17
REMARK    2  A    between atoms: C_11  and  C_14
REMARK    3  A    between atoms: C_14  and  C_15
REMARK    4  A    between atoms: C_15  and  C_16
REMARK    5  A    between atoms: C_16  and  C_25
REMARK    6  A    between atoms: O_17  and  C_18
REMARK    7  A    between atoms: C_18  and  C_20
REMARK    8  A    between atoms: C_20  and  C_21
REMARK    9  A    between atoms: C_25  and  C_26
REMARK   10  A    between atoms: C_26  and  C_27
REMARK   11  A    between atoms: C_27  and  C_30
REMARK                            x       y       z     vdW  Elec       q    Type
REMARK                         _______ _______ _______ _____ _____    ______ ____
ROOT
ATOM      1 NA   UNL     1      12.008 -15.798   0.000  0.00  0.00    +0.000 Na
ENDROOT
TORSDOF 0
REMARK  Name = 
REMARK  11 active torsions:
REMARK  status: ('A' for Active; 'I' for Inactive)
REMARK    1  A    between atoms: C_5  and  O_17
REMARK    2  A    between atoms: C_11  and  C_14
REMARK    3  A    between atoms: C_14  and  C_15
REMARK    4  A    between atoms: C_15  and  C_16
REMARK    5  A    between atoms: C_16  and  C_25
REMARK    6  A    between atoms: O_17  and  C_18
REMARK    7  A    between atoms: C_18  and  C_20
REMARK    8  A    between atoms: C_20  and  C_21
REMARK    9  A    between atoms: C_25  and  C_26
REMARK   10  A    between atoms: C_26  and  C_27
REMARK   11  A    between atoms: C_27  and  C_30
REMARK                            x       y       z     vdW  Elec       q    Type
REMARK                         _______ _______ _______ _____ _____    ______ ____
ROOT
ATOM      1  C   UNL     1       6.559 -17.375   0.000  0.00  0.00    +0.000 C 
ATOM      2  C   UNL     1       6.559 -18.204   0.000  0.00  0.00    +0.000 C 
ATOM      3  C   UNL     1       7.273 -18.617   0.000  0.00  0.00    +0.000 C 
ATOM      4  C   UNL     1       7.273 -16.958   0.000  0.00  0.00    +0.000 C 
ATOM      5  C   UNL     1       7.992 -17.375   0.000  0.00  0.00    +0.000 C 
ATOM      6  C   UNL     1       7.989 -18.204   0.000  0.00  0.00    +0.000 C 
ATOM      7  C   UNL     1       8.701 -18.620   0.000  0.00  0.00    +0.000 C 
ATOM      8  C   UNL     1       9.422 -18.210   0.000  0.00  0.00    +0.000 C 
ATOM      9  C   UNL     1       9.425 -17.381   0.000  0.00  0.00    +0.000 C 
ATOM     10  C   UNL     1       8.708 -16.961   0.000  0.00  0.00    +0.000 C 
ATOM     11  C   UNL     1      10.142 -16.972   0.000  0.00  0.00    +0.000 C 
ATOM     12  O   UNL     1       5.844 -18.617   0.000  0.00  0.00    +0.000 OA
ENDROOT
BRANCH  10  13
ATOM     13  C   UNL     1       8.711 -16.136   0.000  0.00  0.00    +0.000 C 
BRANCH  13  14
ATOM     14  C   UNL     1       9.426 -15.725   0.000  0.00  0.00    +0.000 C 
BRANCH  14  15
ATOM     15  C   UNL     1       9.429 -14.900   0.000  0.00  0.00    +0.000 C 
ATOM     16  O   UNL     1       8.716 -14.489   0.000  0.00  0.00    +0.000 OA
BRANCH  15  17
ATOM     17  C   UNL     1      10.146 -14.492   0.000  0.00  0.00    +0.000 C 
BRANCH  17  18
ATOM     18  C   UNL     1      10.150 -13.671   0.000  0.00  0.00    +0.000 C 
ATOM     19  O   UNL     1      10.867 -13.263   0.000  0.00  0.00    +0.000 OA
BRANCH  18  20
ATOM     20  C   UNL     1       9.439 -13.253   0.000  0.00  0.00    +0.000 C 
BRANCH  20  21
ATOM     21  C   UNL     1       9.445 -12.428   0.000  0.00  0.00    +0.000 C 
ATOM     22  O   UNL     1       8.735 -12.009   0.000  0.00  0.00    +0.000 OA
ATOM     23  O   UNL     1      10.163 -12.021   0.000  0.00  0.00    +0.000 OA
ENDBRANCH  20  21
ENDBRANCH  18  20
ENDBRANCH  17  18
ENDBRANCH  15  17
ENDBRANCH  14  15
ENDBRANCH  13  14
ENDBRANCH  10  13
BRANCH   4  24
ATOM     24  O   UNL     1       7.272 -16.133   0.000  0.00  0.00    +0.000 OA
BRANCH  24  25
ATOM     25  C   UNL     1       6.557 -15.721   0.000  0.00  0.00    +0.000 C 
ATOM     26  O   UNL     1       6.556 -14.896   0.000  0.00  0.00    +0.000 OA
BRANCH  25  27
ATOM     27  C   UNL     1       5.843 -16.135   0.000  0.00  0.00    +0.000 C 
ATOM     28  C   UNL     1       5.844 -16.960   0.000  0.00  0.00    +0.000 C 
BRANCH  27  29
ATOM     29  C   UNL     1       5.128 -15.723   0.000  0.00  0.00    +0.000 C 
ATOM     30  C   UNL     1       4.414 -16.137   0.000  0.00  0.00    +0.000 C 
ENDBRANCH  27  29
ENDBRANCH  25  27
ENDBRANCH  24  25
ENDBRANCH   4  24
TORSDOF 11
