
     RDKit          2D

 11 10  0  0  0  0  0  0  0  0999 V2000
   -0.1000    0.4833    0.0000 C   0  0  0  0  0  0  0  0  0  0  0  0
   -1.1208   -0.4417    0.0000 C   0  0  0  0  0  0  0  0  0  0  0  0
    0.8750   -0.4042    0.0000 C   0  0  0  0  0  0  0  0  0  0  0  0
   -2.6708   -0.4417    0.0000 C   0  0  0  0  0  0  0  0  0  0  0  0
    2.2167    0.3458    0.0000 C   0  0  0  0  0  0  0  0  0  0  0  0
   -3.4458   -1.7542    0.0000 O   0  0  0  0  0  0  0  0  0  0  0  0
    2.2375    1.8833    0.0000 O   0  0  0  0  0  0  0  0  0  0  0  0
    0.7625    1.2833    0.0000 O   0  0  0  0  0  0  0  0  0  0  0  0
    3.5542   -0.4417    0.0000 O   0  0  0  0  0  0  0  0  0  0  0  0
   -3.4458    0.8833    0.0000 O   0  0  0  0  0  0  0  0  0  0  0  0
   -0.9833    1.3000    0.0000 C   0  0  0  0  0  0  0  0  0  0  0  0
  2  1  1  0
  3  1  1  0
  4  2  1  0
  5  3  1  0
  6  4  2  0
  7  5  2  0
  8  1  1  0
  9  5  1  0
 10  4  1  0
 11  1  1  0
M  END


> <chembl_id>
CHEMBL50444

> <chembl_pref_name>
MEGLUTOL
