REMARK  Name = 
REMARK  11 active torsions:
REMARK  status: ('A' for Active; 'I' for Inactive)
REMARK    1  A    between atoms: O_1  and  C_2
REMARK    2  A    between atoms: O_1  and  N_7
REMARK    3  A    between atoms: C_2  and  C_3
REMARK    4  A    between atoms: C_3  and  C_4
REMARK    5  A    between atoms: C_3  and  O_10
REMARK    6  A    between atoms: C_4  and  C_5
REMARK    7  A    between atoms: C_4  and  O_11
REMARK    8  A    between atoms: C_5  and  O_6
REMARK    9  A    between atoms: O_6  and  N_18
REMARK   10  A    between atoms: O_10  and  N_15
REMARK   11  A    between atoms: O_11  and  N_12
REMARK                            x       y       z     vdW  Elec       q    Type
REMARK                         _______ _______ _______ _____ _____    ______ ____
ROOT
ATOM      1  C   UNL     1     -12.124   3.288   0.000  0.00  0.00    +0.000 C 
ENDROOT
BRANCH   1   2
ATOM      2  C   UNL     1     -12.838   3.701   0.000  0.00  0.00    +0.000 C 
BRANCH   2   3
ATOM      3  O   UNL     1     -13.553   3.288   0.000  0.00  0.00    +0.000 OA
BRANCH   3   4
ATOM      4  N   UNL     1     -14.378   3.288   0.000  0.00  0.00    +0.000 N 
ATOM      5  O   UNL     1     -14.790   2.574   0.000  0.00  0.00    +0.000 OA
ATOM      6  O   UNL     1     -14.790   4.003   0.000  0.00  0.00    +0.000 OA
ENDBRANCH   3   4
ENDBRANCH   2   3
ENDBRANCH   1   2
BRANCH   1   7
ATOM      7  C   UNL     1     -11.409   3.701   0.000  0.00  0.00    +0.000 C 
BRANCH   7   8
ATOM      8  C   UNL     1     -10.695   3.288   0.000  0.00  0.00    +0.000 C 
BRANCH   8   9
ATOM      9  O   UNL     1      -9.980   3.701   0.000  0.00  0.00    +0.000 OA
BRANCH   9  10
ATOM     10  N   UNL     1      -9.266   3.288   0.000  0.00  0.00    +0.000 N 
ATOM     11  O   UNL     1      -8.551   3.701   0.000  0.00  0.00    +0.000 OA
ATOM     12  O   UNL     1      -9.266   2.463   0.000  0.00  0.00    +0.000 OA
ENDBRANCH   9  10
ENDBRANCH   8   9
ENDBRANCH   7   8
BRANCH   7  13
ATOM     13  O   UNL     1     -11.409   4.526   0.000  0.00  0.00    +0.000 OA
BRANCH  13  14
ATOM     14  N   UNL     1     -10.695   4.939   0.000  0.00  0.00    +0.000 N 
ATOM     15  O   UNL     1     -10.695   5.763   0.000  0.00  0.00    +0.000 OA
ATOM     16  O   UNL     1      -9.980   4.526   0.000  0.00  0.00    +0.000 OA
ENDBRANCH  13  14
ENDBRANCH   7  13
ENDBRANCH   1   7
BRANCH   1  17
ATOM     17  O   UNL     1     -12.124   2.463   0.000  0.00  0.00    +0.000 OA
BRANCH  17  18
ATOM     18  N   UNL     1     -11.409   2.051   0.000  0.00  0.00    +0.000 N 
ATOM     19  O   UNL     1     -11.409   1.226   0.000  0.00  0.00    +0.000 OA
ATOM     20  O   UNL     1     -10.695   2.463   0.000  0.00  0.00    +0.000 OA
ENDBRANCH  17  18
ENDBRANCH   1  17
TORSDOF 11
