REMARK  Name = 
REMARK  5 active torsions:
REMARK  status: ('A' for Active; 'I' for Inactive)
REMARK    1  A    between atoms: N_1  and  N_2
REMARK    2  A    between atoms: C_7  and  N_11
REMARK    3  A    between atoms: N_11  and  C_13
REMARK    4  A    between atoms: C_13  and  O_14
REMARK    5  A    between atoms: O_14  and  C_16
REMARK                            x       y       z     vdW  Elec       q    Type
REMARK                         _______ _______ _______ _____ _____    ______ ____
ROOT
ATOM      1  N   UNL     1       5.283 -10.508   0.000  0.00  0.00    +0.000 N 
ATOM      2  C   UNL     1       5.772  -9.857   0.000  0.00  0.00    +0.000 A 
ATOM      3  N   UNL     1       5.774 -11.188   0.000  0.00  0.00    +0.000 NA
ATOM      4  C   UNL     1       6.553 -10.122   0.000  0.00  0.00    +0.000 A 
ATOM      5  O   UNL     1       6.558 -10.933   0.000  0.00  0.00    +0.000 OA
ENDROOT
BRANCH   1   6
ATOM      6  N   UNL     1       4.460 -10.508   0.000  0.00  0.00    +0.000 N 
ATOM      7  C   UNL     1       4.047  -9.780   0.000  0.00  0.00    +0.000 C 
ATOM      8  C   UNL     1       4.040 -11.219   0.000  0.00  0.00    +0.000 C 
ATOM      9  C   UNL     1       3.222  -9.778   0.000  0.00  0.00    +0.000 C 
ATOM     10  C   UNL     1       3.215 -11.212   0.000  0.00  0.00    +0.000 C 
ATOM     11  O   UNL     1       2.806 -10.498   0.000  0.00  0.00    +0.000 OA
ENDBRANCH   1   6
BRANCH   4  12
ATOM     12  N   UNL     1       7.223  -9.637   0.000  0.00  0.00    +0.000 NA
BRANCH  12  13
ATOM     13  C   UNL     1       7.978  -9.973   0.000  0.00  0.00    +0.000 C 
ATOM     14  O   UNL     1       8.063 -10.798   0.000  0.00  0.00    +0.000 OA
BRANCH  13  15
ATOM     15  O   UNL     1       8.619  -9.454   0.000  0.00  0.00    +0.000 OA
BRANCH  15  16
ATOM     16  C   UNL     1       9.392  -9.751   0.000  0.00  0.00    +0.000 C 
ATOM     17  C   UNL     1      10.033  -9.233   0.000  0.00  0.00    +0.000 C 
ENDBRANCH  15  16
ENDBRANCH  13  15
ENDBRANCH  12  13
ENDBRANCH   4  12
TORSDOF 5
