REMARK  Name = 
REMARK  7 active torsions:
REMARK  status: ('A' for Active; 'I' for Inactive)
REMARK    1  A    between atoms: C_1  and  C_2
REMARK    2  A    between atoms: C_1  and  C_3
REMARK    3  A    between atoms: C_1  and  C_8
REMARK    4  A    between atoms: C_4  and  C_6
REMARK    5  A    between atoms: N_5  and  C_6
REMARK    6  A    between atoms: N_5  and  C_7
REMARK    7  A    between atoms: C_7  and  C_8
REMARK                            x       y       z     vdW  Elec       q    Type
REMARK                         _______ _______ _______ _____ _____    ______ ____
ROOT
ATOM      1  C   UNL     1       0.679   0.037   0.000  0.00  0.00    +0.000 C 
ENDROOT
BRANCH   1   2
ATOM      2  C   UNL     1       0.017   0.463   0.000  0.00  0.00    +0.000 A 
ATOM      3  C   UNL     1       0.017   1.158   0.000  0.00  0.00    +0.000 A 
ATOM      4  C   UNL     1      -0.608   0.083   0.000  0.00  0.00    +0.000 A 
ATOM      5  C   UNL     1      -0.608   1.546   0.000  0.00  0.00    +0.000 A 
ATOM      6  C   UNL     1      -1.221   0.463   0.000  0.00  0.00    +0.000 A 
ATOM      7  C   UNL     1      -1.221   1.158   0.000  0.00  0.00    +0.000 A 
ENDBRANCH   1   2
BRANCH   1   8
ATOM      8  C   UNL     1       0.679  -0.504   0.000  0.00  0.00    +0.000 A 
ATOM      9  C   UNL     1       0.079  -0.875   0.000  0.00  0.00    +0.000 A 
ATOM     10  C   UNL     1       1.275  -0.875   0.000  0.00  0.00    +0.000 A 
ATOM     11  C   UNL     1       0.079  -1.579   0.000  0.00  0.00    +0.000 A 
ATOM     12  C   UNL     1       1.275  -1.579   0.000  0.00  0.00    +0.000 A 
ATOM     13  C   UNL     1       0.679  -1.950   0.000  0.00  0.00    +0.000 A 
ENDBRANCH   1   8
BRANCH   1  14
ATOM     14  C   UNL     1       1.292   0.446   0.000  0.00  0.00    +0.000 C 
BRANCH  14  15
ATOM     15  C   UNL     1       1.892   0.037   0.000  0.00  0.00    +0.000 C 
BRANCH  15  16
ATOM     16  N   UNL     1       2.554   0.463   0.000  0.00  0.00    +0.000 NA
BRANCH  16  17
ATOM     17  C   UNL     1       3.179   0.062   0.000  0.00  0.00    +0.000 C 
ATOM     18  C   UNL     1       3.179   0.696   0.000  0.00  0.00    +0.000 C 
BRANCH  17  19
ATOM     19  C   UNL     1       4.037   0.062   0.000  0.00  0.00    +0.000 A 
ATOM     20  C   UNL     1       4.404  -0.525   0.000  0.00  0.00    +0.000 A 
ATOM     21  C   UNL     1       4.404   0.683   0.000  0.00  0.00    +0.000 A 
ATOM     22  C   UNL     1       5.062  -0.525   0.000  0.00  0.00    +0.000 A 
ATOM     23  C   UNL     1       5.092   0.683   0.000  0.00  0.00    +0.000 A 
ATOM     24  C   UNL     1       5.438   0.046   0.000  0.00  0.00    +0.000 A 
ENDBRANCH  17  19
ENDBRANCH  16  17
ENDBRANCH  15  16
ENDBRANCH  14  15
ENDBRANCH   1  14
TORSDOF 7
