REMARK  Name = 
REMARK  6 active torsions:
REMARK  status: ('A' for Active; 'I' for Inactive)
REMARK    1  A    between atoms: C_6  and  O_7
REMARK    2  A    between atoms: O_7  and  C_10
REMARK    3  A    between atoms: N_8  and  C_11
REMARK    4  A    between atoms: N_8  and  C_16
REMARK    5  A    between atoms: C_9  and  C_10
REMARK    6  A    between atoms: C_9  and  C_11
REMARK                            x       y       z     vdW  Elec       q    Type
REMARK                         _______ _______ _______ _____ _____    ______ ____
ROOT
ATOM      1  C   UNL     1      -1.883  -0.879   0.000  0.00  0.00    +0.000 A 
ATOM      2  N   UNL     1      -2.900  -2.237   0.000  0.00  0.00    +0.000 NA
ATOM      3  C   UNL     1      -1.883  -1.938   0.000  0.00  0.00    +0.000 A 
ATOM      4  C   UNL     1      -2.896  -0.517   0.000  0.00  0.00    +0.000 A 
ATOM      5  C   UNL     1      -3.496  -1.392   0.000  0.00  0.00    +0.000 A 
ATOM      6  C   UNL     1      -1.008  -0.379   0.000  0.00  0.00    +0.000 A 
ATOM      7  C   UNL     1      -0.983  -2.442   0.000  0.00  0.00    +0.000 A 
ATOM      8  C   UNL     1      -4.346  -1.392   0.000  0.00  0.00    +0.000 C 
ATOM      9  C   UNL     1      -0.121  -1.967   0.000  0.00  0.00    +0.000 A 
ATOM     10  C   UNL     1      -0.121  -0.892   0.000  0.00  0.00    +0.000 A 
ENDROOT
BRANCH   6  11
ATOM     11  O   UNL     1      -1.000   0.671   0.000  0.00  0.00    +0.000 OA
BRANCH  11  12
ATOM     12  C   UNL     1      -0.171   1.246   0.000  0.00  0.00    +0.000 C 
BRANCH  12  13
ATOM     13  C   UNL     1       0.750   0.812   0.000  0.00  0.00    +0.000 C 
ATOM     14  O   UNL     1       0.754  -0.067   0.000  0.00  0.00    +0.000 OA
BRANCH  13  15
ATOM     15  C   UNL     1       1.604   1.358   0.000  0.00  0.00    +0.000 C 
BRANCH  15  16
ATOM     16  N   UNL     1       2.517   0.883   0.000  0.00  0.00    +0.000 NA
BRANCH  16  17
ATOM     17  C   UNL     1       3.425   1.483   0.000  0.00  0.00    +0.000 C 
ATOM     18  C   UNL     1       4.342   1.033   0.000  0.00  0.00    +0.000 C 
ATOM     19  C   UNL     1       3.342   2.487   0.000  0.00  0.00    +0.000 C 
ENDBRANCH  16  17
ENDBRANCH  15  16
ENDBRANCH  13  15
ENDBRANCH  12  13
ENDBRANCH  11  12
ENDBRANCH   6  11
TORSDOF 6
