REMARK  Name = 
REMARK  11 active torsions:
REMARK  status: ('A' for Active; 'I' for Inactive)
REMARK    1  A    between atoms: S_1  and  N_3
REMARK    2  A    between atoms: S_1  and  C_11
REMARK    3  A    between atoms: C_2  and  N_3
REMARK    4  A    between atoms: C_4  and  O_9
REMARK    5  A    between atoms: C_7  and  C_10
REMARK    6  A    between atoms: C_8  and  O_24
REMARK    7  A    between atoms: O_9  and  C_12
REMARK    8  A    between atoms: C_17  and  C_18
REMARK    9  A    between atoms: C_19  and  O_25
REMARK   10  A    between atoms: O_24  and  C_35
REMARK   11  A    between atoms: C_35  and  C_36
REMARK                            x       y       z     vdW  Elec       q    Type
REMARK                         _______ _______ _______ _____ _____    ______ ____
ROOT
ATOM      1  C   UNL     1       8.396  -2.454   0.000  0.00  0.00    +0.000 A 
ATOM      2  C   UNL     1       8.396  -1.746   0.000  0.00  0.00    +0.000 A 
ATOM      3  N   UNL     1       7.787  -2.808   0.000  0.00  0.00    +0.000 NA
ATOM      4  N   UNL     1       7.167  -1.750   0.000  0.00  0.00    +0.000 NA
ATOM      5  C   UNL     1       7.171  -2.454   0.000  0.00  0.00    +0.000 A 
ATOM      6  C   UNL     1       7.775  -1.392   0.000  0.00  0.00    +0.000 A 
ENDROOT
BRANCH   5   7
ATOM      7  C   UNL     1       6.562  -2.812   0.000  0.00  0.00    +0.000 A 
ATOM      8  N   UNL     1       5.950  -2.458   0.000  0.00  0.00    +0.000 NA
ATOM      9  N   UNL     1       6.562  -3.525   0.000  0.00  0.00    +0.000 NA
ATOM     10  C   UNL     1       5.338  -3.525   0.000  0.00  0.00    +0.000 A 
ATOM     11  C   UNL     1       5.950  -3.879   0.000  0.00  0.00    +0.000 A 
ATOM     12  C   UNL     1       5.338  -2.812   0.000  0.00  0.00    +0.000 A 
ENDBRANCH   5   7
BRANCH   1  13
ATOM     13  N   UNL     1       9.012  -2.804   0.000  0.00  0.00    +0.000 NA
BRANCH  13  14
ATOM     14  S   UNL     1       9.012  -3.513   0.000  0.00  0.00    +0.000 S 
ATOM     15  O   UNL     1       8.654  -4.125   0.000  0.00  0.00    +0.000 OA
ATOM     16  O   UNL     1       8.304  -3.513   0.000  0.00  0.00    +0.000 OA
BRANCH  14  17
ATOM     17  C   UNL     1       9.629  -3.867   0.000  0.00  0.00    +0.000 A 
ATOM     18  C   UNL     1      10.854  -4.571   0.000  0.00  0.00    +0.000 A 
ATOM     19  C   UNL     1      10.233  -3.508   0.000  0.00  0.00    +0.000 A 
ATOM     20  C   UNL     1       9.625  -4.575   0.000  0.00  0.00    +0.000 A 
ATOM     21  C   UNL     1      10.242  -4.925   0.000  0.00  0.00    +0.000 A 
ATOM     22  C   UNL     1      10.850  -3.858   0.000  0.00  0.00    +0.000 A 
BRANCH  18  23
ATOM     23  C   UNL     1      11.467  -4.921   0.000  0.00  0.00    +0.000 C 
ATOM     24  C   UNL     1      12.079  -4.567   0.000  0.00  0.00    +0.000 C 
ATOM     25  C   UNL     1      11.104  -5.529   0.000  0.00  0.00    +0.000 C 
ATOM     26  C   UNL     1      11.817  -5.529   0.000  0.00  0.00    +0.000 C 
ENDBRANCH  18  23
ENDBRANCH  14  17
ENDBRANCH  13  14
ENDBRANCH   1  13
BRANCH   2  27
ATOM     27  O   UNL     1       9.008  -1.387   0.000  0.00  0.00    +0.000 OA
BRANCH  27  28
ATOM     28  C   UNL     1       9.621  -1.738   0.000  0.00  0.00    +0.000 A 
ATOM     29  C   UNL     1      10.229  -1.379   0.000  0.00  0.00    +0.000 A 
ATOM     30  C   UNL     1       9.625  -2.446   0.000  0.00  0.00    +0.000 A 
ATOM     31  C   UNL     1      10.846  -1.729   0.000  0.00  0.00    +0.000 A 
ATOM     32  C   UNL     1      10.238  -2.796   0.000  0.00  0.00    +0.000 A 
ATOM     33  C   UNL     1      10.850  -2.438   0.000  0.00  0.00    +0.000 A 
BRANCH  29  34
ATOM     34  O   UNL     1      10.225  -0.671   0.000  0.00  0.00    +0.000 OA
ATOM     35  C   UNL     1      10.833  -0.312   0.000  0.00  0.00    +0.000 C 
ENDBRANCH  29  34
ENDBRANCH  27  28
ENDBRANCH   2  27
BRANCH   6  36
ATOM     36  O   UNL     1       7.771  -0.683   0.000  0.00  0.00    +0.000 OA
BRANCH  36  37
ATOM     37  C   UNL     1       8.383  -0.325   0.000  0.00  0.00    +0.000 C 
BRANCH  37  39
ATOM     38  O   UNL     1       8.988   0.742   0.000  0.00  0.00    +0.000 OA
ATOM     39  C   UNL     1       8.379   0.383   0.000  0.00  0.00    +0.000 C 
ENDBRANCH  37  39
ENDBRANCH  36  37
ENDBRANCH   6  36
TORSDOF 11
