MODEL 1
REMARK VINA RESULT:      -9.6      0.000      0.000
REMARK  Name = 
REMARK  3 active torsions:
REMARK  status: ('A' for Active; 'I' for Inactive)
REMARK    1  A    between atoms: S_1  and  C_2
REMARK    2  A    between atoms: N_3  and  N_4
REMARK    3  A    between atoms: C_5  and  C_7
REMARK                            x       y       z     vdW  Elec       q    Type
REMARK                         _______ _______ _______ _____ _____    ______ ____
ROOT
ATOM      1  N   UNL     1     124.568 143.652 168.742  0.00  0.00    +0.000 NA
ATOM      2  C   UNL     1     125.126 142.705 168.485  0.00  0.00    +0.000 C 
ATOM      3  O   UNL     1     124.640 141.866 167.929  0.00  0.00    +0.000 OA
ENDROOT
BRANCH   1   4
ATOM      4  N   UNL     1     123.481 143.752 168.424  0.00  0.00    +0.000 NA
ATOM      5  C   UNL     1     122.662 143.450 169.146  0.00  0.00    +0.000 C 
ATOM      6  C   UNL     1     123.238 144.149 167.399  0.00  0.00    +0.000 C 
ATOM      7  C   UNL     1     121.341 143.951 167.798  0.00  0.00    +0.000 C 
ATOM      8  C   UNL     1     122.150 144.250 167.081  0.00  0.00    +0.000 C 
ATOM      9  C   UNL     1     121.574 143.551 168.828  0.00  0.00    +0.000 C 
ATOM     10  C   UNL     1     124.066 144.463 166.648  0.00  0.00    +0.000 C 
ATOM     11  C   UNL     1     122.907 143.055 170.166  0.00  0.00    +0.000 C 
ENDBRANCH   1   4
BRANCH   2  14
ATOM     12  C   UNL     1     127.732 143.237 169.848  0.00  0.00    +0.000 A 
ATOM     13  C   UNL     1     126.673 143.335 169.539  0.00  0.00    +0.000 A 
ATOM     14  C   UNL     1     126.214 142.604 168.803  0.00  0.00    +0.000 A 
ATOM     15  C   UNL     1     128.389 142.402 169.439  0.00  0.00    +0.000 A 
ATOM     16  C   UNL     1     126.864 141.759 168.384  0.00  0.00    +0.000 A 
ATOM     17  C   UNL     1     127.923 141.661 168.694  0.00  0.00    +0.000 A 
ATOM     18 CL   UNL     1     129.468 142.302 169.755  0.00  0.00    +0.000 Cl
BRANCH  12  19
ATOM     19  S   UNL     1     128.199 143.968 170.586  0.00  0.00    +0.000 S 
ATOM     20  O   UNL     1     128.660 144.677 171.378  0.00  0.00    +0.000 OA
ATOM     21  O   UNL     1     127.906 143.243 171.458  0.00  0.00    +0.000 OA
ATOM     22  N   UNL     1     128.484 144.669 169.761  0.00  0.00    +0.000 NA
ENDBRANCH  12  19
ENDBRANCH   2  14
TORSDOF 3
ENDMDL
MODEL 2
REMARK VINA RESULT:      -9.5      1.957      2.248
REMARK  Name = 
REMARK  3 active torsions:
REMARK  status: ('A' for Active; 'I' for Inactive)
REMARK    1  A    between atoms: S_1  and  C_2
REMARK    2  A    between atoms: N_3  and  N_4
REMARK    3  A    between atoms: C_5  and  C_7
REMARK                            x       y       z     vdW  Elec       q    Type
REMARK                         _______ _______ _______ _____ _____    ______ ____
ROOT
ATOM      1  N   UNL     1     124.545 143.601 168.646  0.00  0.00    +0.000 NA
ATOM      2  C   UNL     1     125.082 142.648 168.367  0.00  0.00    +0.000 C 
ATOM      3  O   UNL     1     124.570 141.824 167.812  0.00  0.00    +0.000 OA
ENDROOT
BRANCH   1   4
ATOM      4  N   UNL     1     123.453 143.723 168.354  0.00  0.00    +0.000 NA
ATOM      5  C   UNL     1     122.646 143.432 169.094  0.00  0.00    +0.000 C 
ATOM      6  C   UNL     1     123.193 144.129 167.338  0.00  0.00    +0.000 C 
ATOM      7  C   UNL     1     121.303 143.963 167.779  0.00  0.00    +0.000 C 
ATOM      8  C   UNL     1     122.100 144.251 167.045  0.00  0.00    +0.000 C 
ATOM      9  C   UNL     1     121.553 143.554 168.801  0.00  0.00    +0.000 C 
ATOM     10  C   UNL     1     124.010 144.432 166.569  0.00  0.00    +0.000 C 
ATOM     11  C   UNL     1     122.906 143.027 170.106  0.00  0.00    +0.000 C 
ENDBRANCH   1   4
BRANCH   2  14
ATOM     12  C   UNL     1     127.951 141.818 168.288  0.00  0.00    +0.000 A 
ATOM     13  C   UNL     1     126.887 141.937 168.003  0.00  0.00    +0.000 A 
ATOM     14  C   UNL     1     126.175 142.526 168.659  0.00  0.00    +0.000 A 
ATOM     15  C   UNL     1     128.360 142.282 169.244  0.00  0.00    +0.000 A 
ATOM     16  C   UNL     1     126.572 142.998 169.624  0.00  0.00    +0.000 A 
ATOM     17  C   UNL     1     127.636 142.879 169.908  0.00  0.00    +0.000 A 
ATOM     18 CL   UNL     1     129.444 142.161 169.534  0.00  0.00    +0.000 Cl
BRANCH  12  19
ATOM     19  S   UNL     1     128.673 141.227 167.634  0.00  0.00    +0.000 S 
ATOM     20  O   UNL     1     129.421 140.674 166.943  0.00  0.00    +0.000 OA
ATOM     21  O   UNL     1     128.978 142.226 167.104  0.00  0.00    +0.000 OA
ATOM     22  N   UNL     1     128.389 140.266 168.133  0.00  0.00    +0.000 NA
ENDBRANCH  12  19
ENDBRANCH   2  14
TORSDOF 3
ENDMDL
MODEL 3
REMARK VINA RESULT:      -9.1      3.085      5.803
REMARK  Name = 
REMARK  3 active torsions:
REMARK  status: ('A' for Active; 'I' for Inactive)
REMARK    1  A    between atoms: S_1  and  C_2
REMARK    2  A    between atoms: N_3  and  N_4
REMARK    3  A    between atoms: C_5  and  C_7
REMARK                            x       y       z     vdW  Elec       q    Type
REMARK                         _______ _______ _______ _____ _____    ______ ____
ROOT
ATOM      1  N   UNL     1     126.206 142.831 169.114  0.00  0.00    +0.000 NA
ATOM      2  C   UNL     1     126.050 143.604 168.307  0.00  0.00    +0.000 C 
ATOM      3  O   UNL     1     126.902 144.186 167.876  0.00  0.00    +0.000 OA
ENDROOT
BRANCH   1   4
ATOM      4  N   UNL     1     127.260 142.641 169.498  0.00  0.00    +0.000 NA
ATOM      5  C   UNL     1     127.641 143.231 170.386  0.00  0.00    +0.000 C 
ATOM      6  C   UNL     1     127.904 141.871 168.989  0.00  0.00    +0.000 C 
ATOM      7  C   UNL     1     129.333 142.267 170.253  0.00  0.00    +0.000 C 
ATOM      8  C   UNL     1     128.959 141.681 169.373  0.00  0.00    +0.000 C 
ATOM      9  C   UNL     1     128.695 143.041 170.770  0.00  0.00    +0.000 C 
ATOM     10  C   UNL     1     127.528 141.258 168.078  0.00  0.00    +0.000 C 
ATOM     11  C   UNL     1     126.997 143.998 170.892  0.00  0.00    +0.000 C 
ENDBRANCH   1   4
BRANCH   2  14
ATOM     12  C   UNL     1     123.791 144.268 166.468  0.00  0.00    +0.000 A 
ATOM     13  C   UNL     1     124.817 144.083 166.841  0.00  0.00    +0.000 A 
ATOM     14  C   UNL     1     124.996 143.794 167.923  0.00  0.00    +0.000 A 
ATOM     15  C   UNL     1     122.888 144.174 167.156  0.00  0.00    +0.000 A 
ATOM     16  C   UNL     1     124.098 143.696 168.626  0.00  0.00    +0.000 A 
ATOM     17  C   UNL     1     123.071 143.881 168.253  0.00  0.00    +0.000 A 
ATOM     18 CL   UNL     1     121.842 144.363 166.775  0.00  0.00    +0.000 Cl
BRANCH  12  19
ATOM     19  S   UNL     1     123.603 144.558 165.383  0.00  0.00    +0.000 S 
ATOM     20  O   UNL     1     123.420 144.906 164.293  0.00  0.00    +0.000 OA
ATOM     21  O   UNL     1     123.762 145.680 165.677  0.00  0.00    +0.000 OA
ATOM     22  N   UNL     1     123.449 143.488 165.089  0.00  0.00    +0.000 NA
ENDBRANCH  12  19
ENDBRANCH   2  14
TORSDOF 3
ENDMDL
MODEL 4
REMARK VINA RESULT:      -8.8     40.793     41.739
REMARK  Name = 
REMARK  3 active torsions:
REMARK  status: ('A' for Active; 'I' for Inactive)
REMARK    1  A    between atoms: S_1  and  C_2
REMARK    2  A    between atoms: N_3  and  N_4
REMARK    3  A    between atoms: C_5  and  C_7
REMARK                            x       y       z     vdW  Elec       q    Type
REMARK                         _______ _______ _______ _____ _____    ______ ____
ROOT
ATOM      1  N   UNL     1     108.582 127.464 135.851  0.00  0.00    +0.000 NA
ATOM      2  C   UNL     1     108.438 127.156 134.775  0.00  0.00    +0.000 C 
ATOM      3  O   UNL     1     107.455 126.784 134.395  0.00  0.00    +0.000 OA
ENDROOT
BRANCH   1   4
ATOM      4  N   UNL     1     107.701 127.392 136.566  0.00  0.00    +0.000 NA
ATOM      5  C   UNL     1     107.009 128.281 136.685  0.00  0.00    +0.000 C 
ATOM      6  C   UNL     1     107.531 126.441 137.142  0.00  0.00    +0.000 C 
ATOM      7  C   UNL     1     105.967 127.250 137.974  0.00  0.00    +0.000 C 
ATOM      8  C   UNL     1     106.649 126.369 137.858  0.00  0.00    +0.000 C 
ATOM      9  C   UNL     1     106.128 128.209 137.400  0.00  0.00    +0.000 C 
ATOM     10  C   UNL     1     108.231 125.521 137.032  0.00  0.00    +0.000 C 
ATOM     11  C   UNL     1     107.180 129.229 136.109  0.00  0.00    +0.000 C 
ENDBRANCH   1   4
BRANCH   2  14
ATOM     12  C   UNL     1     110.454 126.425 132.693  0.00  0.00    +0.000 A 
ATOM     13  C   UNL     1     109.595 126.355 133.390  0.00  0.00    +0.000 A 
ATOM     14  C   UNL     1     109.320 127.228 134.059  0.00  0.00    +0.000 A 
ATOM     15  C   UNL     1     111.082 127.372 132.628  0.00  0.00    +0.000 A 
ATOM     16  C   UNL     1     109.944 128.187 134.003  0.00  0.00    +0.000 A 
ATOM     17  C   UNL     1     110.802 128.257 133.306  0.00  0.00    +0.000 A 
ATOM     18 CL   UNL     1     111.957 127.443 131.918  0.00  0.00    +0.000 Cl
BRANCH  12  19
ATOM     19  S   UNL     1     110.736 125.552 132.019  0.00  0.00    +0.000 S 
ATOM     20  O   UNL     1     110.982 124.679 131.298  0.00  0.00    +0.000 OA
ATOM     21  O   UNL     1     109.863 125.853 131.299  0.00  0.00    +0.000 OA
ATOM     22  N   UNL     1     111.574 125.255 132.699  0.00  0.00    +0.000 NA
ENDBRANCH  12  19
ENDBRANCH   2  14
TORSDOF 3
ENDMDL
MODEL 5
REMARK VINA RESULT:      -8.7     40.256     41.090
REMARK  Name = 
REMARK  3 active torsions:
REMARK  status: ('A' for Active; 'I' for Inactive)
REMARK    1  A    between atoms: S_1  and  C_2
REMARK    2  A    between atoms: N_3  and  N_4
REMARK    3  A    between atoms: C_5  and  C_7
REMARK                            x       y       z     vdW  Elec       q    Type
REMARK                         _______ _______ _______ _____ _____    ______ ____
ROOT
ATOM      1  N   UNL     1     108.552 127.305 135.889  0.00  0.00    +0.000 NA
ATOM      2  C   UNL     1     108.399 126.932 134.834  0.00  0.00    +0.000 C 
ATOM      3  O   UNL     1     107.417 126.522 134.492  0.00  0.00    +0.000 OA
ENDROOT
BRANCH   1   4
ATOM      4  N   UNL     1     107.683 127.261 136.620  0.00  0.00    +0.000 NA
ATOM      5  C   UNL     1     107.539 126.333 137.254  0.00  0.00    +0.000 C 
ATOM      6  C   UNL     1     106.982 128.137 136.701  0.00  0.00    +0.000 C 
ATOM      7  C   UNL     1     105.971 127.173 138.059  0.00  0.00    +0.000 C 
ATOM      8  C   UNL     1     106.111 128.092 137.433  0.00  0.00    +0.000 C 
ATOM      9  C   UNL     1     106.669 126.289 137.986  0.00  0.00    +0.000 C 
ATOM     10  C   UNL     1     107.116 129.094 136.058  0.00  0.00    +0.000 C 
ATOM     11  C   UNL     1     108.239 125.461 137.172  0.00  0.00    +0.000 C 
ENDBRANCH   1   4
BRANCH   2  14
ATOM     12  C   UNL     1     110.998 127.707 133.580  0.00  0.00    +0.000 A 
ATOM     13  C   UNL     1     110.151 127.664 134.293  0.00  0.00    +0.000 A 
ATOM     14  C   UNL     1     109.269 126.977 134.103  0.00  0.00    +0.000 A 
ATOM     15  C   UNL     1     111.009 127.066 132.639  0.00  0.00    +0.000 A 
ATOM     16  C   UNL     1     109.267 126.327 133.160  0.00  0.00    +0.000 A 
ATOM     17  C   UNL     1     110.114 126.370 132.447  0.00  0.00    +0.000 A 
ATOM     18 CL   UNL     1     111.872 127.110 131.913  0.00  0.00    +0.000 Cl
BRANCH  12  19
ATOM     19  S   UNL     1     111.887 128.394 133.765  0.00  0.00    +0.000 S 
ATOM     20  O   UNL     1     112.764 129.134 133.927  0.00  0.00    +0.000 OA
ATOM     21  O   UNL     1     111.305 129.257 133.229  0.00  0.00    +0.000 OA
ATOM     22  N   UNL     1     112.454 127.577 134.279  0.00  0.00    +0.000 NA
ENDBRANCH  12  19
ENDBRANCH   2  14
TORSDOF 3
ENDMDL
MODEL 6
REMARK VINA RESULT:      -8.7     41.060     42.435
REMARK  Name = 
REMARK  3 active torsions:
REMARK  status: ('A' for Active; 'I' for Inactive)
REMARK    1  A    between atoms: S_1  and  C_2
REMARK    2  A    between atoms: N_3  and  N_4
REMARK    3  A    between atoms: C_5  and  C_7
REMARK                            x       y       z     vdW  Elec       q    Type
REMARK                         _______ _______ _______ _____ _____    ______ ____
ROOT
ATOM      1  N   UNL     1     110.522 127.264 132.389  0.00  0.00    +0.000 NA
ATOM      2  C   UNL     1     110.248 127.293 133.484  0.00  0.00    +0.000 C 
ATOM      3  O   UNL     1     110.702 126.589 134.224  0.00  0.00    +0.000 OA
ENDROOT
BRANCH   1   4
ATOM      4  N   UNL     1     111.281 126.497 132.032  0.00  0.00    +0.000 NA
ATOM      5  C   UNL     1     110.919 125.483 131.678  0.00  0.00    +0.000 C 
ATOM      6  C   UNL     1     112.375 126.756 132.037  0.00  0.00    +0.000 C 
ATOM      7  C   UNL     1     112.775 124.986 131.329  0.00  0.00    +0.000 C 
ATOM      8  C   UNL     1     113.135 125.988 131.679  0.00  0.00    +0.000 C 
ATOM      9  C   UNL     1     111.679 124.715 131.320  0.00  0.00    +0.000 C 
ATOM     10  C   UNL     1     112.761 127.791 132.397  0.00  0.00    +0.000 C 
ATOM     11  C   UNL     1     109.828 125.226 131.674  0.00  0.00    +0.000 C 
ENDBRANCH   1   4
BRANCH   2  14
ATOM     12  C   UNL     1     107.742 128.482 134.597  0.00  0.00    +0.000 A 
ATOM     13  C   UNL     1     108.482 127.734 134.249  0.00  0.00    +0.000 A 
ATOM     14  C   UNL     1     109.488 128.061 133.842  0.00  0.00    +0.000 A 
ATOM     15  C   UNL     1     107.970 129.597 134.557  0.00  0.00    +0.000 A 
ATOM     16  C   UNL     1     109.730 129.180 133.795  0.00  0.00    +0.000 A 
ATOM     17  C   UNL     1     108.990 129.927 134.144  0.00  0.00    +0.000 A 
ATOM     18 CL   UNL     1     107.216 130.359 134.911  0.00  0.00    +0.000 Cl
BRANCH  12  19
ATOM     19  S   UNL     1     106.730 128.161 135.007  0.00  0.00    +0.000 S 
ATOM     20  O   UNL     1     105.679 127.837 135.373  0.00  0.00    +0.000 OA
ATOM     21  O   UNL     1     106.293 128.227 133.923  0.00  0.00    +0.000 OA
ATOM     22  N   UNL     1     107.136 128.094 136.048  0.00  0.00    +0.000 NA
ENDBRANCH  12  19
ENDBRANCH   2  14
TORSDOF 3
ENDMDL
MODEL 7
REMARK VINA RESULT:      -8.4     70.492     71.691
REMARK  Name = 
REMARK  3 active torsions:
REMARK  status: ('A' for Active; 'I' for Inactive)
REMARK    1  A    between atoms: S_1  and  C_2
REMARK    2  A    between atoms: N_3  and  N_4
REMARK    3  A    between atoms: C_5  and  C_7
REMARK                            x       y       z     vdW  Elec       q    Type
REMARK                         _______ _______ _______ _____ _____    ______ ____
ROOT
ATOM      1  N   UNL     1     118.309 146.405  97.924  0.00  0.00    +0.000 NA
ATOM      2  C   UNL     1     117.244 146.619  97.615  0.00  0.00    +0.000 C 
ATOM      3  O   UNL     1     116.802 146.183  96.686  0.00  0.00    +0.000 OA
ENDROOT
BRANCH   1   4
ATOM      4  N   UNL     1     118.946 145.728  97.270  0.00  0.00    +0.000 NA
ATOM      5  C   UNL     1     118.962 144.614  97.476  0.00  0.00    +0.000 C 
ATOM      6  C   UNL     1     119.548 146.174  96.431  0.00  0.00    +0.000 C 
ATOM      7  C   UNL     1     120.200 144.395  95.982  0.00  0.00    +0.000 C 
ATOM      8  C   UNL     1     120.186 145.497  95.776  0.00  0.00    +0.000 C 
ATOM      9  C   UNL     1     119.600 143.936  96.821  0.00  0.00    +0.000 C 
ATOM     10  C   UNL     1     119.542 147.314  96.208  0.00  0.00    +0.000 C 
ATOM     11  C   UNL     1     118.362 144.170  98.312  0.00  0.00    +0.000 C 
ENDBRANCH   1   4
BRANCH   2  14
ATOM     12  C   UNL     1     114.925 147.665  99.182  0.00  0.00    +0.000 A 
ATOM     13  C   UNL     1     115.546 147.005  98.545  0.00  0.00    +0.000 A 
ATOM     14  C   UNL     1     116.606 147.296  98.270  0.00  0.00    +0.000 A 
ATOM     15  C   UNL     1     115.331 148.651  99.579  0.00  0.00    +0.000 A 
ATOM     16  C   UNL     1     117.028 148.286  98.662  0.00  0.00    +0.000 A 
ATOM     17  C   UNL     1     116.407 148.946  99.300  0.00  0.00    +0.000 A 
ATOM     18 CL   UNL     1     114.699 149.324 100.229  0.00  0.00    +0.000 Cl
BRANCH  12  19
ATOM     19  S   UNL     1     113.859 147.378  99.462  0.00  0.00    +0.000 S 
ATOM     20  O   UNL     1     112.794 147.067  99.796  0.00  0.00    +0.000 OA
ATOM     21  O   UNL     1     114.261 146.957 100.478  0.00  0.00    +0.000 OA
ATOM     22  N   UNL     1     113.463 147.778  98.495  0.00  0.00    +0.000 NA
ENDBRANCH  12  19
ENDBRANCH   2  14
TORSDOF 3
ENDMDL
MODEL 8
REMARK VINA RESULT:      -8.4     21.867     22.769
REMARK  Name = 
REMARK  3 active torsions:
REMARK  status: ('A' for Active; 'I' for Inactive)
REMARK    1  A    between atoms: S_1  and  C_2
REMARK    2  A    between atoms: N_3  and  N_4
REMARK    3  A    between atoms: C_5  and  C_7
REMARK                            x       y       z     vdW  Elec       q    Type
REMARK                         _______ _______ _______ _____ _____    ______ ____
ROOT
ATOM      1  N   UNL     1     124.013 125.652 183.561  0.00  0.00    +0.000 NA
ATOM      2  C   UNL     1     124.596 126.501 183.097  0.00  0.00    +0.000 C 
ATOM      3  O   UNL     1     124.170 127.530 183.011  0.00  0.00    +0.000 OA
ENDROOT
BRANCH   1   4
ATOM      4  N   UNL     1     122.964 125.854 183.949  0.00  0.00    +0.000 NA
ATOM      5  C   UNL     1     122.082 125.745 183.246  0.00  0.00    +0.000 C 
ATOM      6  C   UNL     1     122.819 126.158 185.023  0.00  0.00    +0.000 C 
ATOM      7  C   UNL     1     120.898 126.251 184.714  0.00  0.00    +0.000 C 
ATOM      8  C   UNL     1     121.769 126.360 185.411  0.00  0.00    +0.000 C 
ATOM      9  C   UNL     1     121.032 125.947 183.635  0.00  0.00    +0.000 C 
ATOM     10  C   UNL     1     123.713 126.274 185.755  0.00  0.00    +0.000 C 
ATOM     11  C   UNL     1     122.228 125.442 182.176  0.00  0.00    +0.000 C 
ENDBRANCH   1   4
BRANCH   2  14
ATOM     12  C   UNL     1     127.123 125.065 182.399  0.00  0.00    +0.000 A 
ATOM     13  C   UNL     1     126.100 125.262 182.778  0.00  0.00    +0.000 A 
ATOM     14  C   UNL     1     125.646 126.299 182.709  0.00  0.00    +0.000 A 
ATOM     15  C   UNL     1     127.746 125.895 181.931  0.00  0.00    +0.000 A 
ATOM     16  C   UNL     1     126.263 127.143 182.240  0.00  0.00    +0.000 A 
ATOM     17  C   UNL     1     127.285 126.946 181.862  0.00  0.00    +0.000 A 
ATOM     18 CL   UNL     1     128.788 125.695 181.546  0.00  0.00    +0.000 Cl
BRANCH  12  19
ATOM     19  S   UNL     1     127.585 124.026 182.465  0.00  0.00    +0.000 S 
ATOM     20  O   UNL     1     128.077 122.984 182.581  0.00  0.00    +0.000 OA
ATOM     21  O   UNL     1     128.059 124.325 183.493  0.00  0.00    +0.000 OA
ATOM     22  N   UNL     1     127.137 123.729 181.483  0.00  0.00    +0.000 NA
ENDBRANCH  12  19
ENDBRANCH   2  14
TORSDOF 3
ENDMDL
MODEL 9
REMARK VINA RESULT:      -8.3     39.854     41.173
REMARK  Name = 
REMARK  3 active torsions:
REMARK  status: ('A' for Active; 'I' for Inactive)
REMARK    1  A    between atoms: S_1  and  C_2
REMARK    2  A    between atoms: N_3  and  N_4
REMARK    3  A    between atoms: C_5  and  C_7
REMARK                            x       y       z     vdW  Elec       q    Type
REMARK                         _______ _______ _______ _____ _____    ______ ____
ROOT
ATOM      1  N   UNL     1     110.816 127.487 134.305  0.00  0.00    +0.000 NA
ATOM      2  C   UNL     1     109.970 128.229 134.394  0.00  0.00    +0.000 C 
ATOM      3  O   UNL     1     109.952 129.176 133.801  0.00  0.00    +0.000 OA
ENDROOT
BRANCH   1   4
ATOM      4  N   UNL     1     111.672 127.712 133.591  0.00  0.00    +0.000 NA
ATOM      5  C   UNL     1     112.566 128.299 133.966  0.00  0.00    +0.000 C 
ATOM      6  C   UNL     1     111.618 127.348 132.528  0.00  0.00    +0.000 C 
ATOM      7  C   UNL     1     113.358 128.154 132.187  0.00  0.00    +0.000 C 
ATOM      8  C   UNL     1     112.475 127.573 131.814  0.00  0.00    +0.000 C 
ATOM      9  C   UNL     1     113.423 128.524 133.252  0.00  0.00    +0.000 C 
ATOM     10  C   UNL     1     110.709 126.745 132.130  0.00  0.00    +0.000 C 
ATOM     11  C   UNL     1     112.618 128.660 135.026  0.00  0.00    +0.000 C 
ENDBRANCH   1   4
BRANCH   2  14
ATOM     12  C   UNL     1     108.100 126.729 136.179  0.00  0.00    +0.000 A 
ATOM     13  C   UNL     1     108.935 126.949 135.484  0.00  0.00    +0.000 A 
ATOM     14  C   UNL     1     109.113 128.003 135.108  0.00  0.00    +0.000 A 
ATOM     15  C   UNL     1     107.400 127.553 136.535  0.00  0.00    +0.000 A 
ATOM     16  C   UNL     1     108.415 128.841 135.458  0.00  0.00    +0.000 A 
ATOM     17  C   UNL     1     107.581 128.622 136.153  0.00  0.00    +0.000 A 
ATOM     18 CL   UNL     1     106.549 127.330 137.243  0.00  0.00    +0.000 Cl
BRANCH  12  19
ATOM     19  S   UNL     1     107.916 125.673 136.561  0.00  0.00    +0.000 S 
ATOM     20  O   UNL     1     107.693 124.589 136.907  0.00  0.00    +0.000 OA
ATOM     21  O   UNL     1     107.194 125.494 135.657  0.00  0.00    +0.000 OA
ATOM     22  N   UNL     1     108.604 125.832 137.430  0.00  0.00    +0.000 NA
ENDBRANCH  12  19
ENDBRANCH   2  14
TORSDOF 3
ENDMDL
MODEL 10
REMARK VINA RESULT:      -8.1     70.380     71.708
REMARK  Name = 
REMARK  3 active torsions:
REMARK  status: ('A' for Active; 'I' for Inactive)
REMARK    1  A    between atoms: S_1  and  C_2
REMARK    2  A    between atoms: N_3  and  N_4
REMARK    3  A    between atoms: C_5  and  C_7
REMARK                            x       y       z     vdW  Elec       q    Type
REMARK                         _______ _______ _______ _____ _____    ______ ____
ROOT
ATOM      1  N   UNL     1     118.137 146.453  97.976  0.00  0.00    +0.000 NA
ATOM      2  C   UNL     1     117.077 146.654  97.644  0.00  0.00    +0.000 C 
ATOM      3  O   UNL     1     116.711 146.359  96.630  0.00  0.00    +0.000 OA
ENDROOT
BRANCH   1   4
ATOM      4  N   UNL     1     118.850 145.937  97.256  0.00  0.00    +0.000 NA
ATOM      5  C   UNL     1     119.452 146.562  96.528  0.00  0.00    +0.000 C 
ATOM      6  C   UNL     1     118.946 144.816  97.280  0.00  0.00    +0.000 C 
ATOM      7  C   UNL     1     120.254 144.921  95.840  0.00  0.00    +0.000 C 
ATOM      8  C   UNL     1     119.660 144.300  96.560  0.00  0.00    +0.000 C 
ATOM      9  C   UNL     1     120.166 146.046  95.808  0.00  0.00    +0.000 C 
ATOM     10  C   UNL     1     118.336 144.161  98.020  0.00  0.00    +0.000 C 
ATOM     11  C   UNL     1     119.355 147.679  96.506  0.00  0.00    +0.000 C 
ENDBRANCH   1   4
BRANCH   2  14
ATOM     12  C   UNL     1     115.621 148.805  99.122  0.00  0.00    +0.000 A 
ATOM     13  C   UNL     1     116.316 148.302  98.420  0.00  0.00    +0.000 A 
ATOM     14  C   UNL     1     116.363 147.170  98.364  0.00  0.00    +0.000 A 
ATOM     15  C   UNL     1     114.937 148.203  99.804  0.00  0.00    +0.000 A 
ATOM     16  C   UNL     1     115.680 146.553  99.045  0.00  0.00    +0.000 A 
ATOM     17  C   UNL     1     114.985 147.056  99.746  0.00  0.00    +0.000 A 
ATOM     18 CL   UNL     1     114.228 148.716 100.519  0.00  0.00    +0.000 Cl
BRANCH  12  19
ATOM     19  S   UNL     1     115.568 149.940  99.183  0.00  0.00    +0.000 S 
ATOM     20  O   UNL     1     115.551 151.095  99.288  0.00  0.00    +0.000 OA
ATOM     21  O   UNL     1     116.355 149.910 100.049  0.00  0.00    +0.000 OA
ATOM     22  N   UNL     1     114.814 149.983  98.357  0.00  0.00    +0.000 NA
ENDBRANCH  12  19
ENDBRANCH   2  14
TORSDOF 3
ENDMDL
MODEL 11
REMARK VINA RESULT:      -8.1     21.709     22.506
REMARK  Name = 
REMARK  3 active torsions:
REMARK  status: ('A' for Active; 'I' for Inactive)
REMARK    1  A    between atoms: S_1  and  C_2
REMARK    2  A    between atoms: N_3  and  N_4
REMARK    3  A    between atoms: C_5  and  C_7
REMARK                            x       y       z     vdW  Elec       q    Type
REMARK                         _______ _______ _______ _____ _____    ______ ____
ROOT
ATOM      1  N   UNL     1     124.280 125.217 183.458  0.00  0.00    +0.000 NA
ATOM      2  C   UNL     1     125.067 125.917 183.051  0.00  0.00    +0.000 C 
ATOM      3  O   UNL     1     124.847 126.991 182.838  0.00  0.00    +0.000 OA
ENDROOT
BRANCH   1   4
ATOM      4  N   UNL     1     123.235 125.620 183.654  0.00  0.00    +0.000 NA
ATOM      5  C   UNL     1     122.983 126.029 184.680  0.00  0.00    +0.000 C 
ATOM      6  C   UNL     1     122.471 125.605 182.828  0.00  0.00    +0.000 C 
ATOM      7  C   UNL     1     121.178 126.413 184.041  0.00  0.00    +0.000 C 
ATOM      8  C   UNL     1     121.425 126.009 183.025  0.00  0.00    +0.000 C 
ATOM      9  C   UNL     1     121.937 126.433 184.877  0.00  0.00    +0.000 C 
ATOM     10  C   UNL     1     122.715 125.189 181.772  0.00  0.00    +0.000 C 
ATOM     11  C   UNL     1     123.746 126.043 185.502  0.00  0.00    +0.000 C 
ENDBRANCH   1   4
BRANCH   2  14
ATOM     12  C   UNL     1     127.743 125.500 181.786  0.00  0.00    +0.000 A 
ATOM     13  C   UNL     1     126.724 125.893 181.978  0.00  0.00    +0.000 A 
ATOM     14  C   UNL     1     126.113 125.514 182.854  0.00  0.00    +0.000 A 
ATOM     15  C   UNL     1     128.204 124.707 182.461  0.00  0.00    +0.000 A 
ATOM     16  C   UNL     1     126.565 124.716 183.541  0.00  0.00    +0.000 A 
ATOM     17  C   UNL     1     127.583 124.324 183.349  0.00  0.00    +0.000 A 
ATOM     18 CL   UNL     1     129.241 124.307 182.266  0.00  0.00    +0.000 Cl
BRANCH  12  19
ATOM     19  S   UNL     1     128.362 125.876 180.908  0.00  0.00    +0.000 S 
ATOM     20  O   UNL     1     128.970 126.219 179.983  0.00  0.00    +0.000 OA
ATOM     21  O   UNL     1     127.879 125.046 180.238  0.00  0.00    +0.000 OA
ATOM     22  N   UNL     1     128.831 126.674 181.538  0.00  0.00    +0.000 NA
ENDBRANCH  12  19
ENDBRANCH   2  14
TORSDOF 3
ENDMDL
MODEL 12
REMARK VINA RESULT:      -8.0     21.936     23.188
REMARK  Name = 
REMARK  3 active torsions:
REMARK  status: ('A' for Active; 'I' for Inactive)
REMARK    1  A    between atoms: S_1  and  C_2
REMARK    2  A    between atoms: N_3  and  N_4
REMARK    3  A    between atoms: C_5  and  C_7
REMARK                            x       y       z     vdW  Elec       q    Type
REMARK                         _______ _______ _______ _____ _____    ______ ____
ROOT
ATOM      1  N   UNL     1     125.914 125.085 182.181  0.00  0.00    +0.000 NA
ATOM      2  C   UNL     1     125.466 125.677 183.031  0.00  0.00    +0.000 C 
ATOM      3  O   UNL     1     125.951 125.724 184.037  0.00  0.00    +0.000 OA
ENDROOT
BRANCH   1   4
ATOM      4  N   UNL     1     126.886 124.521 182.356  0.00  0.00    +0.000 NA
ATOM      5  C   UNL     1     126.848 123.463 182.757  0.00  0.00    +0.000 C 
ATOM      6  C   UNL     1     127.866 125.024 182.128  0.00  0.00    +0.000 C 
ATOM      7  C   UNL     1     128.799 123.412 182.700  0.00  0.00    +0.000 C 
ATOM      8  C   UNL     1     128.839 124.460 182.303  0.00  0.00    +0.000 C 
ATOM      9  C   UNL     1     127.821 122.899 182.932  0.00  0.00    +0.000 C 
ATOM     10  C   UNL     1     127.921 126.108 181.717  0.00  0.00    +0.000 C 
ATOM     11  C   UNL     1     125.870 122.964 182.984  0.00  0.00    +0.000 C 
ENDBRANCH   1   4
BRANCH   2  14
ATOM     12  C   UNL     1     122.561 126.379 183.068  0.00  0.00    +0.000 A 
ATOM     13  C   UNL     1     123.508 125.829 183.239  0.00  0.00    +0.000 A 
ATOM     14  C   UNL     1     124.493 126.241 182.856  0.00  0.00    +0.000 A 
ATOM     15  C   UNL     1     122.549 127.369 182.507  0.00  0.00    +0.000 A 
ATOM     16  C   UNL     1     124.495 127.236 182.290  0.00  0.00    +0.000 A 
ATOM     17  C   UNL     1     123.548 127.786 182.119  0.00  0.00    +0.000 A 
ATOM     18 CL   UNL     1     121.583 127.928 182.333  0.00  0.00    +0.000 Cl
BRANCH  12  19
ATOM     19  S   UNL     1     121.569 125.971 183.450  0.00  0.00    +0.000 S 
ATOM     20  O   UNL     1     120.552 125.530 183.789  0.00  0.00    +0.000 OA
ATOM     21  O   UNL     1     121.430 125.412 182.430  0.00  0.00    +0.000 OA
ATOM     22  N   UNL     1     121.690 126.501 184.428  0.00  0.00    +0.000 NA
ENDBRANCH  12  19
ENDBRANCH   2  14
TORSDOF 3
ENDMDL
MODEL 13
REMARK VINA RESULT:      -7.9     41.236     42.384
REMARK  Name = 
REMARK  3 active torsions:
REMARK  status: ('A' for Active; 'I' for Inactive)
REMARK    1  A    between atoms: S_1  and  C_2
REMARK    2  A    between atoms: N_3  and  N_4
REMARK    3  A    between atoms: C_5  and  C_7
REMARK                            x       y       z     vdW  Elec       q    Type
REMARK                         _______ _______ _______ _____ _____    ______ ____
ROOT
ATOM      1  N   UNL     1     111.421 126.546 133.124  0.00  0.00    +0.000 NA
ATOM      2  C   UNL     1     110.431 126.741 132.619  0.00  0.00    +0.000 C 
ATOM      3  O   UNL     1     110.357 126.942 131.522  0.00  0.00    +0.000 OA
ENDROOT
BRANCH   1   4
ATOM      4  N   UNL     1     112.369 126.556 132.496  0.00  0.00    +0.000 NA
ATOM      5  C   UNL     1     112.712 125.600 131.995  0.00  0.00    +0.000 C 
ATOM      6  C   UNL     1     112.950 127.514 132.384  0.00  0.00    +0.000 C 
ATOM      7  C   UNL     1     114.235 126.576 131.260  0.00  0.00    +0.000 C 
ATOM      8  C   UNL     1     113.898 127.523 131.755  0.00  0.00    +0.000 C 
ATOM      9  C   UNL     1     113.661 125.610 131.367  0.00  0.00    +0.000 C 
ATOM     10  C   UNL     1     112.611 128.502 132.891  0.00  0.00    +0.000 C 
ATOM     11  C   UNL     1     112.133 124.647 132.108  0.00  0.00    +0.000 C 
ENDBRANCH   1   4
BRANCH   2  14
ATOM     12  C   UNL     1     108.298 127.598 134.530  0.00  0.00    +0.000 A 
ATOM     13  C   UNL     1     109.222 127.608 133.918  0.00  0.00    +0.000 A 
ATOM     14  C   UNL     1     109.482 126.731 133.247  0.00  0.00    +0.000 A 
ATOM     15  C   UNL     1     107.585 126.711 134.503  0.00  0.00    +0.000 A 
ATOM     16  C   UNL     1     108.773 125.832 133.211  0.00  0.00    +0.000 A 
ATOM     17  C   UNL     1     107.849 125.823 133.823  0.00  0.00    +0.000 A 
ATOM     18 CL   UNL     1     106.644 126.701 135.127  0.00  0.00    +0.000 Cl
BRANCH  12  19
ATOM     19  S   UNL     1     108.031 128.475 135.205  0.00  0.00    +0.000 S 
ATOM     20  O   UNL     1     107.787 129.342 135.934  0.00  0.00    +0.000 OA
ATOM     21  O   UNL     1     108.611 127.952 136.078  0.00  0.00    +0.000 OA
ATOM     22  N   UNL     1     107.474 128.984 134.379  0.00  0.00    +0.000 NA
ENDBRANCH  12  19
ENDBRANCH   2  14
TORSDOF 3
ENDMDL
MODEL 14
REMARK VINA RESULT:      -7.8     50.102     51.422
REMARK  Name = 
REMARK  3 active torsions:
REMARK  status: ('A' for Active; 'I' for Inactive)
REMARK    1  A    between atoms: S_1  and  C_2
REMARK    2  A    between atoms: N_3  and  N_4
REMARK    3  A    between atoms: C_5  and  C_7
REMARK                            x       y       z     vdW  Elec       q    Type
REMARK                         _______ _______ _______ _____ _____    ______ ____
ROOT
ATOM      1  N   UNL     1     121.686 134.238 118.599  0.00  0.00    +0.000 NA
ATOM      2  C   UNL     1     122.355 135.136 118.741  0.00  0.00    +0.000 C 
ATOM      3  O   UNL     1     123.196 135.133 119.477  0.00  0.00    +0.000 OA
ENDROOT
BRANCH   1   4
ATOM      4  N   UNL     1     121.874 133.307 119.224  0.00  0.00    +0.000 NA
ATOM      5  C   UNL     1     121.375 133.209 120.236  0.00  0.00    +0.000 C 
ATOM      6  C   UNL     1     122.552 132.501 118.827  0.00  0.00    +0.000 C 
ATOM      7  C   UNL     1     122.245 131.475 120.454  0.00  0.00    +0.000 C 
ATOM      8  C   UNL     1     122.740 131.570 119.452  0.00  0.00    +0.000 C 
ATOM      9  C   UNL     1     121.564 132.277 120.861  0.00  0.00    +0.000 C 
ATOM     10  C   UNL     1     123.071 132.588 117.791  0.00  0.00    +0.000 C 
ATOM     11  C   UNL     1     120.700 134.013 120.629  0.00  0.00    +0.000 C 
ENDBRANCH   1   4
BRANCH   2  14
ATOM     12  C   UNL     1     121.176 137.715 117.800  0.00  0.00    +0.000 A 
ATOM     13  C   UNL     1     121.360 136.808 118.409  0.00  0.00    +0.000 A 
ATOM     14  C   UNL     1     122.166 136.067 118.115  0.00  0.00    +0.000 A 
ATOM     15  C   UNL     1     121.789 137.930 116.865  0.00  0.00    +0.000 A 
ATOM     16  C   UNL     1     122.791 136.271 117.177  0.00  0.00    +0.000 A 
ATOM     17  C   UNL     1     122.607 137.179 116.568  0.00  0.00    +0.000 A 
ATOM     18 CL   UNL     1     121.602 138.855 116.244  0.00  0.00    +0.000 Cl
BRANCH  12  19
ATOM     19  S   UNL     1     120.368 138.464 118.089  0.00  0.00    +0.000 S 
ATOM     20  O   UNL     1     119.509 139.196 118.352  0.00  0.00    +0.000 OA
ATOM     21  O   UNL     1     119.600 137.849 117.453  0.00  0.00    +0.000 OA
ATOM     22  N   UNL     1     121.092 139.060 118.699  0.00  0.00    +0.000 NA
ENDBRANCH  12  19
ENDBRANCH   2  14
TORSDOF 3
ENDMDL
MODEL 15
REMARK VINA RESULT:      -7.7     24.128     25.405
REMARK  Name = 
REMARK  3 active torsions:
REMARK  status: ('A' for Active; 'I' for Inactive)
REMARK    1  A    between atoms: S_1  and  C_2
REMARK    2  A    between atoms: N_3  and  N_4
REMARK    3  A    between atoms: C_5  and  C_7
REMARK                            x       y       z     vdW  Elec       q    Type
REMARK                         _______ _______ _______ _____ _____    ______ ____
ROOT
ATOM      1  N   UNL     1     145.962 133.000 178.349  0.00  0.00    +0.000 NA
ATOM      2  C   UNL     1     146.903 132.530 177.938  0.00  0.00    +0.000 C 
ATOM      3  O   UNL     1     147.146 131.453 178.110  0.00  0.00    +0.000 OA
ENDROOT
BRANCH   1   4
ATOM      4  N   UNL     1     145.245 132.358 178.953  0.00  0.00    +0.000 NA
ATOM      5  C   UNL     1     145.360 132.309 180.079  0.00  0.00    +0.000 C 
ATOM      6  C   UNL     1     144.435 131.784 178.424  0.00  0.00    +0.000 C 
ATOM      7  C   UNL     1     143.832 131.095 180.144  0.00  0.00    +0.000 C 
ATOM      8  C   UNL     1     143.716 131.142 179.030  0.00  0.00    +0.000 C 
ATOM      9  C   UNL     1     144.642 131.666 180.684  0.00  0.00    +0.000 C 
ATOM     10  C   UNL     1     144.304 131.825 177.271  0.00  0.00    +0.000 C 
ATOM     11  C   UNL     1     146.168 132.882 180.605  0.00  0.00    +0.000 C 
ENDBRANCH   1   4
BRANCH   2  14
ATOM     12  C   UNL     1     148.389 133.686 175.618  0.00  0.00    +0.000 A 
ATOM     13  C   UNL     1     147.689 133.061 176.207  0.00  0.00    +0.000 A 
ATOM     14  C   UNL     1     147.621 133.172 177.333  0.00  0.00    +0.000 A 
ATOM     15  C   UNL     1     149.057 134.457 176.123  0.00  0.00    +0.000 A 
ATOM     16  C   UNL     1     148.287 133.944 177.855  0.00  0.00    +0.000 A 
ATOM     17  C   UNL     1     148.987 134.570 177.265  0.00  0.00    +0.000 A 
ATOM     18 CL   UNL     1     149.769 135.095 175.523  0.00  0.00    +0.000 Cl
BRANCH  12  19
ATOM     19  S   UNL     1     148.463 133.579 174.486  0.00  0.00    +0.000 S 
ATOM     20  O   UNL     1     148.501 133.513 173.330  0.00  0.00    +0.000 OA
ATOM     21  O   UNL     1     147.697 134.458 174.374  0.00  0.00    +0.000 OA
ATOM     22  N   UNL     1     149.195 132.738 174.581  0.00  0.00    +0.000 NA
ENDBRANCH  12  19
ENDBRANCH   2  14
TORSDOF 3
ENDMDL
MODEL 16
REMARK VINA RESULT:      -7.7     50.071     51.416
REMARK  Name = 
REMARK  3 active torsions:
REMARK  status: ('A' for Active; 'I' for Inactive)
REMARK    1  A    between atoms: S_1  and  C_2
REMARK    2  A    between atoms: N_3  and  N_4
REMARK    3  A    between atoms: C_5  and  C_7
REMARK                            x       y       z     vdW  Elec       q    Type
REMARK                         _______ _______ _______ _____ _____    ______ ____
ROOT
ATOM      1  N   UNL     1     121.226 133.995 118.822  0.00  0.00    +0.000 NA
ATOM      2  C   UNL     1     121.665 135.007 119.064  0.00  0.00    +0.000 C 
ATOM      3  O   UNL     1     122.571 135.117 119.709  0.00  0.00    +0.000 OA
ENDROOT
BRANCH   1   4
ATOM      4  N   UNL     1     121.722 133.065 119.248  0.00  0.00    +0.000 NA
ATOM      5  C   UNL     1     122.536 132.549 118.652  0.00  0.00    +0.000 C 
ATOM      6  C   UNL     1     121.397 132.673 120.251  0.00  0.00    +0.000 C 
ATOM      7  C   UNL     1     122.698 131.233 120.085  0.00  0.00    +0.000 C 
ATOM      8  C   UNL     1     121.893 131.742 120.677  0.00  0.00    +0.000 C 
ATOM      9  C   UNL     1     123.032 131.617 119.078  0.00  0.00    +0.000 C 
ATOM     10  C   UNL     1     120.564 133.191 120.873  0.00  0.00    +0.000 C 
ATOM     11  C   UNL     1     122.859 132.940 117.652  0.00  0.00    +0.000 C 
ENDBRANCH   1   4
BRANCH   2  14
ATOM     12  C   UNL     1     121.310 137.682 117.780  0.00  0.00    +0.000 A 
ATOM     13  C   UNL     1     121.793 136.775 118.194  0.00  0.00    +0.000 A 
ATOM     14  C   UNL     1     121.169 135.938 118.638  0.00  0.00    +0.000 A 
ATOM     15  C   UNL     1     120.177 137.800 117.787  0.00  0.00    +0.000 A 
ATOM     16  C   UNL     1     120.029 136.044 118.651  0.00  0.00    +0.000 A 
ATOM     17  C   UNL     1     119.546 136.951 118.237  0.00  0.00    +0.000 A 
ATOM     18 CL   UNL     1     119.685 138.724 117.364  0.00  0.00    +0.000 Cl
BRANCH  12  19
ATOM     19  S   UNL     1     121.929 138.526 117.333  0.00  0.00    +0.000 S 
ATOM     20  O   UNL     1     122.556 139.360 116.828  0.00  0.00    +0.000 OA
ATOM     21  O   UNL     1     121.853 138.001 116.289  0.00  0.00    +0.000 OA
ATOM     22  N   UNL     1     122.009 139.037 118.326  0.00  0.00    +0.000 NA
ENDBRANCH  12  19
ENDBRANCH   2  14
TORSDOF 3
ENDMDL
MODEL 17
REMARK VINA RESULT:      -7.6     42.172     43.969
REMARK  Name = 
REMARK  3 active torsions:
REMARK  status: ('A' for Active; 'I' for Inactive)
REMARK    1  A    between atoms: S_1  and  C_2
REMARK    2  A    between atoms: N_3  and  N_4
REMARK    3  A    between atoms: C_5  and  C_7
REMARK                            x       y       z     vdW  Elec       q    Type
REMARK                         _______ _______ _______ _____ _____    ______ ____
ROOT
ATOM      1  N   UNL     1     153.618 132.094 138.611  0.00  0.00    +0.000 NA
ATOM      2  C   UNL     1     154.621 132.204 138.105  0.00  0.00    +0.000 C 
ATOM      3  O   UNL     1     155.576 132.202 138.684  0.00  0.00    +0.000 OA
ENDROOT
BRANCH   1   4
ATOM      4  N   UNL     1     153.582 131.979 139.742  0.00  0.00    +0.000 NA
ATOM      5  C   UNL     1     153.522 132.905 140.391  0.00  0.00    +0.000 C 
ATOM      6  C   UNL     1     153.607 130.949 140.194  0.00  0.00    +0.000 C 
ATOM      7  C   UNL     1     153.512 131.751 141.967  0.00  0.00    +0.000 C 
ATOM      8  C   UNL     1     153.571 130.834 141.326  0.00  0.00    +0.000 C 
ATOM      9  C   UNL     1     153.487 132.789 141.523  0.00  0.00    +0.000 C 
ATOM     10  C   UNL     1     153.668 129.991 139.541  0.00  0.00    +0.000 C 
ATOM     11  C   UNL     1     153.498 133.930 139.938  0.00  0.00    +0.000 C 
ENDBRANCH   1   4
BRANCH   2  14
ATOM     12  C   UNL     1     153.754 132.688 135.286  0.00  0.00    +0.000 A 
ATOM     13  C   UNL     1     153.719 132.576 136.388  0.00  0.00    +0.000 A 
ATOM     14  C   UNL     1     154.656 132.320 136.973  0.00  0.00    +0.000 A 
ATOM     15  C   UNL     1     154.727 132.551 134.711  0.00  0.00    +0.000 A 
ATOM     16  C   UNL     1     155.642 132.178 136.407  0.00  0.00    +0.000 A 
ATOM     17  C   UNL     1     155.676 132.291 135.306  0.00  0.00    +0.000 A 
ATOM     18 CL   UNL     1     154.762 132.665 133.588  0.00  0.00    +0.000 Cl
BRANCH  12  19
ATOM     19  S   UNL     1     152.818 132.945 134.691  0.00  0.00    +0.000 S 
ATOM     20  O   UNL     1     151.877 133.261 134.093  0.00  0.00    +0.000 OA
ATOM     21  O   UNL     1     153.069 134.081 134.825  0.00  0.00    +0.000 OA
ATOM     22  N   UNL     1     152.566 131.863 134.557  0.00  0.00    +0.000 NA
ENDBRANCH  12  19
ENDBRANCH   2  14
TORSDOF 3
ENDMDL
MODEL 18
REMARK VINA RESULT:      -7.4     82.624     83.817
REMARK  Name = 
REMARK  3 active torsions:
REMARK  status: ('A' for Active; 'I' for Inactive)
REMARK    1  A    between atoms: S_1  and  C_2
REMARK    2  A    between atoms: N_3  and  N_4
REMARK    3  A    between atoms: C_5  and  C_7
REMARK                            x       y       z     vdW  Elec       q    Type
REMARK                         _______ _______ _______ _____ _____    ______ ____
ROOT
ATOM      1  N   UNL     1     160.129 142.278  91.284  0.00  0.00    +0.000 NA
ATOM      2  C   UNL     1     159.489 142.512  92.184  0.00  0.00    +0.000 C 
ATOM      3  O   UNL     1     159.478 143.527  92.651  0.00  0.00    +0.000 OA
ENDROOT
BRANCH   1   4
ATOM      4  N   UNL     1     160.779 143.100  90.843  0.00  0.00    +0.000 NA
ATOM      5  C   UNL     1     161.838 143.233  91.223  0.00  0.00    +0.000 C 
ATOM      6  C   UNL     1     160.361 143.766  90.038  0.00  0.00    +0.000 C 
ATOM      7  C   UNL     1     162.059 144.718  89.974  0.00  0.00    +0.000 C 
ATOM      8  C   UNL     1     161.012 144.589  89.597  0.00  0.00    +0.000 C 
ATOM      9  C   UNL     1     162.489 144.056  90.781  0.00  0.00    +0.000 C 
ATOM     10  C   UNL     1     159.277 143.642  89.638  0.00  0.00    +0.000 C 
ATOM     11  C   UNL     1     162.253 142.568  92.025  0.00  0.00    +0.000 C 
ENDBRANCH   1   4
BRANCH   2  14
ATOM     12  C   UNL     1     157.462 141.119  93.881  0.00  0.00    +0.000 A 
ATOM     13  C   UNL     1     158.096 141.920  93.451  0.00  0.00    +0.000 A 
ATOM     14  C   UNL     1     158.838 141.690  92.625  0.00  0.00    +0.000 A 
ATOM     15  C   UNL     1     157.537 140.045  93.508  0.00  0.00    +0.000 A 
ATOM     16  C   UNL     1     158.924 140.615  92.241  0.00  0.00    +0.000 A 
ATOM     17  C   UNL     1     158.290 139.814  92.671  0.00  0.00    +0.000 A 
ATOM     18 CL   UNL     1     156.891 139.229  93.946  0.00  0.00    +0.000 Cl
BRANCH  12  19
ATOM     19  S   UNL     1     156.714 141.342  94.710  0.00  0.00    +0.000 S 
ATOM     20  O   UNL     1     155.992 141.554  95.591  0.00  0.00    +0.000 OA
ATOM     21  O   UNL     1     157.524 141.030  95.496  0.00  0.00    +0.000 OA
ATOM     22  N   UNL     1     155.932 141.642  93.968  0.00  0.00    +0.000 NA
ENDBRANCH  12  19
ENDBRANCH   2  14
TORSDOF 3
ENDMDL
MODEL 19
REMARK VINA RESULT:      -7.4     30.703     32.093
REMARK  Name = 
REMARK  3 active torsions:
REMARK  status: ('A' for Active; 'I' for Inactive)
REMARK    1  A    between atoms: S_1  and  C_2
REMARK    2  A    between atoms: N_3  and  N_4
REMARK    3  A    between atoms: C_5  and  C_7
REMARK                            x       y       z     vdW  Elec       q    Type
REMARK                         _______ _______ _______ _____ _____    ______ ____
ROOT
ATOM      1  N   UNL     1     119.362 152.279 198.975  0.00  0.00    +0.000 NA
ATOM      2  C   UNL     1     118.486 152.788 198.478  0.00  0.00    +0.000 C 
ATOM      3  O   UNL     1     118.515 153.869 198.195  0.00  0.00    +0.000 OA
ENDROOT
BRANCH   1   4
ATOM      4  N   UNL     1     120.298 152.885 199.194  0.00  0.00    +0.000 NA
ATOM      5  C   UNL     1     120.399 153.408 200.194  0.00  0.00    +0.000 C 
ATOM      6  C   UNL     1     121.108 152.955 198.416  0.00  0.00    +0.000 C 
ATOM      7  C   UNL     1     122.142 154.078 199.625  0.00  0.00    +0.000 C 
ATOM      8  C   UNL     1     122.045 153.561 198.635  0.00  0.00    +0.000 C 
ATOM      9  C   UNL     1     121.336 154.015 200.413  0.00  0.00    +0.000 C 
ATOM     10  C   UNL     1     121.019 152.424 197.387  0.00  0.00    +0.000 C 
ATOM     11  C   UNL     1     119.591 153.338 200.969  0.00  0.00    +0.000 C 
ENDBRANCH   1   4
BRANCH   2  14
ATOM     12  C   UNL     1     115.806 152.019 197.402  0.00  0.00    +0.000 A 
ATOM     13  C   UNL     1     116.718 152.610 197.615  0.00  0.00    +0.000 A 
ATOM     14  C   UNL     1     117.548 152.181 198.259  0.00  0.00    +0.000 A 
ATOM     15  C   UNL     1     115.674 150.968 197.821  0.00  0.00    +0.000 A 
ATOM     16  C   UNL     1     117.429 151.125 198.686  0.00  0.00    +0.000 A 
ATOM     17  C   UNL     1     116.516 150.535 198.473  0.00  0.00    +0.000 A 
ATOM     18 CL   UNL     1     114.744 150.366 197.603  0.00  0.00    +0.000 Cl
BRANCH  12  19
ATOM     19  S   UNL     1     114.968 152.442 196.757  0.00  0.00    +0.000 S 
ATOM     20  O   UNL     1     114.141 152.851 196.056  0.00  0.00    +0.000 OA
ATOM     21  O   UNL     1     115.478 151.964 195.818  0.00  0.00    +0.000 OA
ATOM     22  N   UNL     1     114.472 152.904 197.648  0.00  0.00    +0.000 NA
ENDBRANCH  12  19
ENDBRANCH   2  14
TORSDOF 3
ENDMDL
MODEL 20
REMARK VINA RESULT:      -7.4     83.206     84.412
REMARK  Name = 
REMARK  3 active torsions:
REMARK  status: ('A' for Active; 'I' for Inactive)
REMARK    1  A    between atoms: S_1  and  C_2
REMARK    2  A    between atoms: N_3  and  N_4
REMARK    3  A    between atoms: C_5  and  C_7
REMARK                            x       y       z     vdW  Elec       q    Type
REMARK                         _______ _______ _______ _____ _____    ______ ____
ROOT
ATOM      1  N   UNL     1     160.117 142.317  91.282  0.00  0.00    +0.000 NA
ATOM      2  C   UNL     1     159.489 142.554  92.189  0.00  0.00    +0.000 C 
ATOM      3  O   UNL     1     159.489 143.569  92.657  0.00  0.00    +0.000 OA
ENDROOT
BRANCH   1   4
ATOM      4  N   UNL     1     160.766 143.136  90.833  0.00  0.00    +0.000 NA
ATOM      5  C   UNL     1     161.831 143.262  91.198  0.00  0.00    +0.000 C 
ATOM      6  C   UNL     1     160.340 143.804  90.035  0.00  0.00    +0.000 C 
ATOM      7  C   UNL     1     162.043 144.747  89.949  0.00  0.00    +0.000 C 
ATOM      8  C   UNL     1     160.990 144.624  89.585  0.00  0.00    +0.000 C 
ATOM      9  C   UNL     1     162.480 144.081  90.749  0.00  0.00    +0.000 C 
ATOM     10  C   UNL     1     159.251 143.687  89.649  0.00  0.00    +0.000 C 
ATOM     11  C   UNL     1     162.253 142.594  91.994  0.00  0.00    +0.000 C 
ENDBRANCH   1   4
BRANCH   2  14
ATOM     12  C   UNL     1     158.276 139.870  92.696  0.00  0.00    +0.000 A 
ATOM     13  C   UNL     1     158.908 140.668  92.259  0.00  0.00    +0.000 A 
ATOM     14  C   UNL     1     158.840 141.735  92.639  0.00  0.00    +0.000 A 
ATOM     15  C   UNL     1     157.542 140.096  93.537  0.00  0.00    +0.000 A 
ATOM     16  C   UNL     1     158.106 141.976  93.484  0.00  0.00    +0.000 A 
ATOM     17  C   UNL     1     157.474 141.178  93.922  0.00  0.00    +0.000 A 
ATOM     18 CL   UNL     1     156.898 139.284  93.983  0.00  0.00    +0.000 Cl
BRANCH  12  19
ATOM     19  S   UNL     1     158.338 138.798  92.320  0.00  0.00    +0.000 S 
ATOM     20  O   UNL     1     158.359 137.717  91.903  0.00  0.00    +0.000 OA
ATOM     21  O   UNL     1     157.435 139.017  91.608  0.00  0.00    +0.000 OA
ATOM     22  N   UNL     1     159.202 138.576  92.997  0.00  0.00    +0.000 NA
ENDBRANCH  12  19
ENDBRANCH   2  14
TORSDOF 3
ENDMDL
