MODEL 1
REMARK VINA RESULT:     -12.6      0.000      0.000
REMARK  Name = 
REMARK  4 active torsions:
REMARK  status: ('A' for Active; 'I' for Inactive)
REMARK    1  A    between atoms: O_6  and  C_31
REMARK    2  A    between atoms: O_6  and  C_36
REMARK    3  A    between atoms: C_15  and  C_26
REMARK    4  A    between atoms: C_23  and  C_32
REMARK                            x       y       z     vdW  Elec       q    Type
REMARK                         _______ _______ _______ _____ _____    ______ ____
ROOT
ATOM      1  O   UNL     1     137.196 158.472 210.503  0.00  0.00    +0.000 OA
ATOM      2  O   UNL     1     134.845 157.906 209.687  0.00  0.00    +0.000 OA
ATOM      3  O   UNL     1     135.204 159.876 212.309  0.00  0.00    +0.000 OA
ATOM      4  O   UNL     1     134.449 159.687 212.037  0.00  0.00    +0.000 OA
ATOM      5  C   UNL     1     135.779 159.082 211.272  0.00  0.00    +0.000 C 
ATOM      6  C   UNL     1     136.445 158.779 210.889  0.00  0.00    +0.000 C 
ATOM      7  C   UNL     1     135.024 158.891 210.998  0.00  0.00    +0.000 C 
ATOM      8  C   UNL     1     137.200 158.969 211.161  0.00  0.00    +0.000 C 
ATOM      9  C   UNL     1     137.289 159.461 211.817  0.00  0.00    +0.000 C 
ATOM     10  C   UNL     1     134.934 158.398 210.342  0.00  0.00    +0.000 C 
ATOM     11  C   UNL     1     135.869 159.574 211.927  0.00  0.00    +0.000 C 
ATOM     12  C   UNL     1     136.354 158.286 210.233  0.00  0.00    +0.000 C 
ATOM     13  C   UNL     1     136.624 159.764 212.200  0.00  0.00    +0.000 C 
ATOM     14  C   UNL     1     134.359 159.194 211.381  0.00  0.00    +0.000 C 
ATOM     15  C   UNL     1     138.097 159.552 211.959  0.00  0.00    +0.000 C 
ATOM     16  C   UNL     1     137.952 158.755 210.899  0.00  0.00    +0.000 C 
ATOM     17  C   UNL     1     135.600 158.096 209.960  0.00  0.00    +0.000 C 
ATOM     18  C   UNL     1     134.179 158.209 210.069  0.00  0.00    +0.000 C 
ATOM     19  C   UNL     1     138.506 159.115 211.392  0.00  0.00    +0.000 C 
ATOM     20  C   UNL     1     137.465 159.944 212.462  0.00  0.00    +0.000 C 
ATOM     21  C   UNL     1     133.604 159.004 211.108  0.00  0.00    +0.000 C 
ATOM     22  C   UNL     1     133.514 158.511 210.452  0.00  0.00    +0.000 C 
ENDROOT
BRANCH  15  25
ATOM     23  O   UNL     1     138.888 160.384 213.759  0.00  0.00    +0.000 OA
ATOM     24  O   UNL     1     139.377 161.723 213.401  0.00  0.00    +0.000 OA
ATOM     25  C   UNL     1     138.436 160.001 212.564  0.00  0.00    +0.000 C 
ATOM     26  C   UNL     1     138.744 160.761 212.487  0.00  0.00    +0.000 C 
ATOM     27  C   UNL     1     138.524 159.767 213.349  0.00  0.00    +0.000 C 
ATOM     28  C   UNL     1     139.024 160.999 213.226  0.00  0.00    +0.000 C 
ENDBRANCH  15  25
BRANCH   7  30
ATOM     29  O   UNL     1     134.862 159.855 212.283  0.00  0.00    +0.000 OA
ATOM     30  C   UNL     1     135.114 159.384 211.654  0.00  0.00    +0.000 C 
ENDBRANCH   7  30
BRANCH  22  31
ATOM     31  O   UNL     1     132.759 158.322 210.180  0.00  0.00    +0.000 OA
BRANCH  31  36
ATOM     32  O   UNL     1     132.580 159.436 209.305  0.00  0.00    +0.000 OA
ATOM     33  O   UNL     1     131.183 158.440 210.654  0.00  0.00    +0.000 OA
ATOM     34  O   UNL     1     130.216 159.616 210.016  0.00  0.00    +0.000 OA
ATOM     35  O   UNL     1     130.825 160.671 208.903  0.00  0.00    +0.000 OA
ATOM     36  C   UNL     1     132.275 158.908 209.861  0.00  0.00    +0.000 C 
ATOM     37  C   UNL     1     131.487 158.968 210.098  0.00  0.00    +0.000 C 
ATOM     38  C   UNL     1     131.004 159.556 209.779  0.00  0.00    +0.000 C 
ATOM     39  C   UNL     1     132.097 160.024 208.985  0.00  0.00    +0.000 C 
ATOM     40  C   UNL     1     131.309 160.083 209.222  0.00  0.00    +0.000 C 
ATOM     41  C   UNL     1     132.401 160.552 208.429  0.00  0.00    +0.000 C 
ENDBRANCH  31  36
ENDBRANCH  22  31
TORSDOF 4
ENDMDL
MODEL 2
REMARK VINA RESULT:     -12.4    110.366    113.422
REMARK  Name = 
REMARK  4 active torsions:
REMARK  status: ('A' for Active; 'I' for Inactive)
REMARK    1  A    between atoms: O_6  and  C_31
REMARK    2  A    between atoms: O_6  and  C_36
REMARK    3  A    between atoms: C_15  and  C_26
REMARK    4  A    between atoms: C_23  and  C_32
REMARK                            x       y       z     vdW  Elec       q    Type
REMARK                         _______ _______ _______ _____ _____    ______ ____
ROOT
ATOM      1  O   UNL     1     104.170 141.316 105.457  0.00  0.00    +0.000 OA
ATOM      2  O   UNL     1     104.925 141.058 103.032  0.00  0.00    +0.000 OA
ATOM      3  O   UNL     1     103.029 143.629 103.857  0.00  0.00    +0.000 OA
ATOM      4  O   UNL     1     103.279 143.535 103.077  0.00  0.00    +0.000 OA
ATOM      5  C   UNL     1     103.726 142.438 104.226  0.00  0.00    +0.000 C 
ATOM      6  C   UNL     1     103.950 141.889 104.800  0.00  0.00    +0.000 C 
ATOM      7  C   UNL     1     103.978 142.343 103.445  0.00  0.00    +0.000 C 
ATOM      8  C   UNL     1     103.700 141.983 105.580  0.00  0.00    +0.000 C 
ATOM      9  C   UNL     1     103.226 142.626 105.786  0.00  0.00    +0.000 C 
ATOM     10  C   UNL     1     104.452 141.700 103.239  0.00  0.00    +0.000 C 
ATOM     11  C   UNL     1     103.252 143.081 104.432  0.00  0.00    +0.000 C 
ATOM     12  C   UNL     1     104.425 141.246 104.593  0.00  0.00    +0.000 C 
ATOM     13  C   UNL     1     103.002 143.175 105.212  0.00  0.00    +0.000 C 
ATOM     14  C   UNL     1     103.753 142.892 102.871  0.00  0.00    +0.000 C 
ATOM     15  C   UNL     1     103.064 142.575 106.594  0.00  0.00    +0.000 C 
ATOM     16  C   UNL     1     103.832 141.535 106.260  0.00  0.00    +0.000 C 
ATOM     17  C   UNL     1     104.675 141.152 103.813  0.00  0.00    +0.000 C 
ATOM     18  C   UNL     1     104.702 141.606 102.458  0.00  0.00    +0.000 C 
ATOM     19  C   UNL     1     103.439 141.901 106.887  0.00  0.00    +0.000 C 
ATOM     20  C   UNL     1     102.753 143.238 106.073  0.00  0.00    +0.000 C 
ATOM     21  C   UNL     1     104.004 142.798 102.091  0.00  0.00    +0.000 C 
ATOM     22  C   UNL     1     104.478 142.155 101.884  0.00  0.00    +0.000 C 
ENDROOT
BRANCH  15  25
ATOM     23  O   UNL     1     102.234 144.169 107.746  0.00  0.00    +0.000 OA
ATOM     24  O   UNL     1     100.824 143.812 107.966  0.00  0.00    +0.000 OA
ATOM     25  C   UNL     1     102.608 143.106 107.032  0.00  0.00    +0.000 C 
ATOM     26  C   UNL     1     101.811 143.017 107.220  0.00  0.00    +0.000 C 
ATOM     27  C   UNL     1     102.871 143.817 107.356  0.00  0.00    +0.000 C 
ATOM     28  C   UNL     1     101.578 143.674 107.662  0.00  0.00    +0.000 C 
ENDBRANCH  15  25
BRANCH   7  30
ATOM     29  O   UNL     1     103.069 143.675 103.520  0.00  0.00    +0.000 OA
ATOM     30  C   UNL     1     103.503 142.986 103.651  0.00  0.00    +0.000 C 
ENDBRANCH   7  30
BRANCH  22  31
ATOM     31  O   UNL     1     104.729 142.061 101.104  0.00  0.00    +0.000 OA
BRANCH  31  36
ATOM     32  O   UNL     1     103.615 141.307 100.624  0.00  0.00    +0.000 OA
ATOM     33  O   UNL     1     104.760 142.915  99.692  0.00  0.00    +0.000 OA
ATOM     34  O   UNL     1     103.660 142.586  98.505  0.00  0.00    +0.000 OA
ATOM     35  O   UNL     1     102.530 141.405  98.732  0.00  0.00    +0.000 OA
ATOM     36  C   UNL     1     104.179 141.898 100.511  0.00  0.00    +0.000 C 
ATOM     37  C   UNL     1     104.195 142.324  99.805  0.00  0.00    +0.000 C 
ATOM     38  C   UNL     1     103.645 142.160  99.211  0.00  0.00    +0.000 C 
ATOM     39  C   UNL     1     103.065 141.143 100.031  0.00  0.00    +0.000 C 
ATOM     40  C   UNL     1     103.080 141.569  99.325  0.00  0.00    +0.000 C 
ATOM     41  C   UNL     1     102.500 140.552 100.144  0.00  0.00    +0.000 C 
ENDBRANCH  31  36
ENDBRANCH  22  31
TORSDOF 4
ENDMDL
MODEL 3
REMARK VINA RESULT:     -12.4     93.760     95.219
REMARK  Name = 
REMARK  4 active torsions:
REMARK  status: ('A' for Active; 'I' for Inactive)
REMARK    1  A    between atoms: O_6  and  C_31
REMARK    2  A    between atoms: O_6  and  C_36
REMARK    3  A    between atoms: C_15  and  C_26
REMARK    4  A    between atoms: C_23  and  C_32
REMARK                            x       y       z     vdW  Elec       q    Type
REMARK                         _______ _______ _______ _____ _____    ______ ____
ROOT
ATOM      1  O   UNL     1     121.783 133.698 121.940  0.00  0.00    +0.000 OA
ATOM      2  O   UNL     1     124.045 132.580 121.560  0.00  0.00    +0.000 OA
ATOM      3  O   UNL     1     122.693 134.337 119.117  0.00  0.00    +0.000 OA
ATOM      4  O   UNL     1     123.424 133.971 119.006  0.00  0.00    +0.000 OA
ATOM      5  C   UNL     1     122.638 133.825 120.449  0.00  0.00    +0.000 C 
ATOM      6  C   UNL     1     122.245 133.752 121.171  0.00  0.00    +0.000 C 
ATOM      7  C   UNL     1     123.370 133.458 120.339  0.00  0.00    +0.000 C 
ATOM      8  C   UNL     1     121.514 134.118 121.282  0.00  0.00    +0.000 C 
ATOM      9  C   UNL     1     121.176 134.557 120.671  0.00  0.00    +0.000 C 
ATOM     10  C   UNL     1     123.708 133.019 120.950  0.00  0.00    +0.000 C 
ATOM     11  C   UNL     1     122.300 134.265 119.838  0.00  0.00    +0.000 C 
ATOM     12  C   UNL     1     122.584 133.312 121.782  0.00  0.00    +0.000 C 
ATOM     13  C   UNL     1     121.569 134.631 119.949  0.00  0.00    +0.000 C 
ATOM     14  C   UNL     1     123.762 133.532 119.617  0.00  0.00    +0.000 C 
ATOM     15  C   UNL     1     120.454 134.854 120.939  0.00  0.00    +0.000 C 
ATOM     16  C   UNL     1     121.002 134.143 121.927  0.00  0.00    +0.000 C 
ATOM     17  C   UNL     1     123.314 132.946 121.671  0.00  0.00    +0.000 C 
ATOM     18  C   UNL     1     124.438 132.653 120.839  0.00  0.00    +0.000 C 
ATOM     19  C   UNL     1     120.347 134.598 121.716  0.00  0.00    +0.000 C 
ATOM     20  C   UNL     1     120.772 135.012 120.114  0.00  0.00    +0.000 C 
ATOM     21  C   UNL     1     124.493 133.166 119.506  0.00  0.00    +0.000 C 
ATOM     22  C   UNL     1     124.831 132.726 120.117  0.00  0.00    +0.000 C 
ENDROOT
BRANCH  15  25
ATOM     23  O   UNL     1     118.951 135.710 119.689  0.00  0.00    +0.000 OA
ATOM     24  O   UNL     1     119.101 137.166 119.820  0.00  0.00    +0.000 OA
ATOM     25  C   UNL     1     119.933 135.324 120.506  0.00  0.00    +0.000 C 
ATOM     26  C   UNL     1     119.918 136.149 120.497  0.00  0.00    +0.000 C 
ATOM     27  C   UNL     1     119.336 135.052 120.007  0.00  0.00    +0.000 C 
ATOM     28  C   UNL     1     119.311 136.388 119.992  0.00  0.00    +0.000 C 
ENDBRANCH  15  25
BRANCH   7  30
ATOM     29  O   UNL     1     123.001 134.259 118.986  0.00  0.00    +0.000 OA
ATOM     30  C   UNL     1     123.031 133.898 119.728  0.00  0.00    +0.000 C 
ENDBRANCH   7  30
BRANCH  22  31
ATOM     31  O   UNL     1     125.562 132.360 120.006  0.00  0.00    +0.000 OA
BRANCH  31  36
ATOM     32  O   UNL     1     126.422 133.439 120.376  0.00  0.00    +0.000 OA
ATOM     33  O   UNL     1     126.535 132.026 118.716  0.00  0.00    +0.000 OA
ATOM     34  O   UNL     1     127.882 132.939 118.441  0.00  0.00    +0.000 OA
ATOM     35  O   UNL     1     128.256 134.185 119.456  0.00  0.00    +0.000 OA
ATOM     36  C   UNL     1     126.236 132.816 119.868  0.00  0.00    +0.000 C 
ATOM     37  C   UNL     1     126.722 132.649 119.223  0.00  0.00    +0.000 C 
ATOM     38  C   UNL     1     127.396 133.105 119.085  0.00  0.00    +0.000 C 
ATOM     39  C   UNL     1     127.096 133.895 120.238  0.00  0.00    +0.000 C 
ATOM     40  C   UNL     1     127.583 133.728 119.593  0.00  0.00    +0.000 C 
ATOM     41  C   UNL     1     127.283 134.518 120.746  0.00  0.00    +0.000 C 
ENDBRANCH  31  36
ENDBRANCH  22  31
TORSDOF 4
ENDMDL
MODEL 4
REMARK VINA RESULT:     -11.8     49.939     53.500
REMARK  Name = 
REMARK  4 active torsions:
REMARK  status: ('A' for Active; 'I' for Inactive)
REMARK    1  A    between atoms: O_6  and  C_31
REMARK    2  A    between atoms: O_6  and  C_36
REMARK    3  A    between atoms: C_15  and  C_26
REMARK    4  A    between atoms: C_23  and  C_32
REMARK                            x       y       z     vdW  Elec       q    Type
REMARK                         _______ _______ _______ _____ _____    ______ ____
ROOT
ATOM      1  O   UNL     1     103.576 149.301 169.833  0.00  0.00    +0.000 OA
ATOM      2  O   UNL     1     103.268 148.589 167.401  0.00  0.00    +0.000 OA
ATOM      3  O   UNL     1     106.323 148.895 168.610  0.00  0.00    +0.000 OA
ATOM      4  O   UNL     1     106.211 148.665 167.826  0.00  0.00    +0.000 OA
ATOM      5  C   UNL     1     104.908 148.972 168.791  0.00  0.00    +0.000 C 
ATOM      6  C   UNL     1     104.256 149.125 169.273  0.00  0.00    +0.000 C 
ATOM      7  C   UNL     1     104.795 148.742 168.005  0.00  0.00    +0.000 C 
ATOM      8  C   UNL     1     104.368 149.354 170.057  0.00  0.00    +0.000 C 
ATOM      9  C   UNL     1     105.132 149.431 170.359  0.00  0.00    +0.000 C 
ATOM     10  C   UNL     1     104.031 148.666 167.703  0.00  0.00    +0.000 C 
ATOM     11  C   UNL     1     105.672 149.048 169.092  0.00  0.00    +0.000 C 
ATOM     12  C   UNL     1     103.492 149.048 168.970  0.00  0.00    +0.000 C 
ATOM     13  C   UNL     1     105.784 149.277 169.877  0.00  0.00    +0.000 C 
ATOM     14  C   UNL     1     105.447 148.589 167.524  0.00  0.00    +0.000 C 
ATOM     15  C   UNL     1     105.071 149.664 171.148  0.00  0.00    +0.000 C 
ATOM     16  C   UNL     1     103.836 149.541 170.659  0.00  0.00    +0.000 C 
ATOM     17  C   UNL     1     103.380 148.819 168.186  0.00  0.00    +0.000 C 
ATOM     18  C   UNL     1     103.919 148.436 166.919  0.00  0.00    +0.000 C 
ATOM     19  C   UNL     1     104.271 149.732 171.334  0.00  0.00    +0.000 C 
ATOM     20  C   UNL     1     105.859 149.530 170.736  0.00  0.00    +0.000 C 
ATOM     21  C   UNL     1     105.335 148.360 166.739  0.00  0.00    +0.000 C 
ATOM     22  C   UNL     1     104.571 148.283 166.437  0.00  0.00    +0.000 C 
ENDROOT
BRANCH  15  25
ATOM     23  O   UNL     1     106.738 150.386 172.270  0.00  0.00    +0.000 OA
ATOM     24  O   UNL     1     107.039 149.340 173.259  0.00  0.00    +0.000 OA
ATOM     25  C   UNL     1     105.702 149.805 171.662  0.00  0.00    +0.000 C 
ATOM     26  C   UNL     1     105.966 149.297 172.255  0.00  0.00    +0.000 C 
ATOM     27  C   UNL     1     106.179 150.478 171.671  0.00  0.00    +0.000 C 
ATOM     28  C   UNL     1     106.607 149.656 172.632  0.00  0.00    +0.000 C 
ENDBRANCH  15  25
BRANCH   7  30
ATOM     29  O   UNL     1     106.383 148.782 168.292  0.00  0.00    +0.000 OA
ATOM     30  C   UNL     1     105.559 148.818 168.308  0.00  0.00    +0.000 C 
ENDBRANCH   7  30
BRANCH  22  31
ATOM     31  O   UNL     1     104.459 148.053 165.652  0.00  0.00    +0.000 OA
BRANCH  31  36
ATOM     32  O   UNL     1     104.512 146.640 165.849  0.00  0.00    +0.000 OA
ATOM     33  O   UNL     1     105.326 147.893 164.258  0.00  0.00    +0.000 OA
ATOM     34  O   UNL     1     105.813 146.397 163.757  0.00  0.00    +0.000 OA
ATOM     35  O   UNL     1     105.433 145.063 164.652  0.00  0.00    +0.000 OA
ATOM     36  C   UNL     1     104.703 147.307 165.402  0.00  0.00    +0.000 C 
ATOM     37  C   UNL     1     105.136 147.226 164.705  0.00  0.00    +0.000 C 
ATOM     38  C   UNL     1     105.380 146.478 164.454  0.00  0.00    +0.000 C 
ATOM     39  C   UNL     1     104.756 145.892 165.599  0.00  0.00    +0.000 C 
ATOM     40  C   UNL     1     105.189 145.811 164.902  0.00  0.00    +0.000 C 
ATOM     41  C   UNL     1     104.566 145.225 166.046  0.00  0.00    +0.000 C 
ENDBRANCH  31  36
ENDBRANCH  22  31
TORSDOF 4
ENDMDL
MODEL 5
REMARK VINA RESULT:     -11.8     59.798     61.736
REMARK  Name = 
REMARK  4 active torsions:
REMARK  status: ('A' for Active; 'I' for Inactive)
REMARK    1  A    between atoms: O_6  and  C_31
REMARK    2  A    between atoms: O_6  and  C_36
REMARK    3  A    between atoms: C_15  and  C_26
REMARK    4  A    between atoms: C_23  and  C_32
REMARK                            x       y       z     vdW  Elec       q    Type
REMARK                         _______ _______ _______ _____ _____    ______ ____
ROOT
ATOM      1  O   UNL     1     130.590 139.654 151.337  0.00  0.00    +0.000 OA
ATOM      2  O   UNL     1     129.777 138.009 153.111  0.00  0.00    +0.000 OA
ATOM      3  O   UNL     1     132.680 139.520 153.533  0.00  0.00    +0.000 OA
ATOM      4  O   UNL     1     132.406 138.987 154.100  0.00  0.00    +0.000 OA
ATOM      5  C   UNL     1     131.502 139.299 152.755  0.00  0.00    +0.000 C 
ATOM      6  C   UNL     1     131.050 139.454 152.083  0.00  0.00    +0.000 C 
ATOM      7  C   UNL     1     131.228 138.764 153.322  0.00  0.00    +0.000 C 
ATOM      8  C   UNL     1     131.323 139.988 151.516  0.00  0.00    +0.000 C 
ATOM      9  C   UNL     1     132.049 140.366 151.622  0.00  0.00    +0.000 C 
ATOM     10  C   UNL     1     130.502 138.387 153.217  0.00  0.00    +0.000 C 
ATOM     11  C   UNL     1     132.228 139.676 152.861  0.00  0.00    +0.000 C 
ATOM     12  C   UNL     1     130.324 139.076 151.978  0.00  0.00    +0.000 C 
ATOM     13  C   UNL     1     132.501 140.210 152.294  0.00  0.00    +0.000 C 
ATOM     14  C   UNL     1     131.681 138.609 153.994  0.00  0.00    +0.000 C 
ATOM     15  C   UNL     1     132.175 140.861 150.974  0.00  0.00    +0.000 C 
ATOM     16  C   UNL     1     131.001 140.250 150.804  0.00  0.00    +0.000 C 
ATOM     17  C   UNL     1     130.050 138.543 152.545  0.00  0.00    +0.000 C 
ATOM     18  C   UNL     1     130.229 137.853 153.783  0.00  0.00    +0.000 C 
ATOM     19  C   UNL     1     131.527 140.789 150.469  0.00  0.00    +0.000 C 
ATOM     20  C   UNL     1     132.759 140.783 151.652  0.00  0.00    +0.000 C 
ATOM     21  C   UNL     1     131.407 138.076 154.561  0.00  0.00    +0.000 C 
ATOM     22  C   UNL     1     130.681 137.697 154.456  0.00  0.00    +0.000 C 
ENDROOT
BRANCH  15  25
ATOM     23  O   UNL     1     134.046 141.770 150.495  0.00  0.00    +0.000 OA
ATOM     24  O   UNL     1     133.944 143.163 150.953  0.00  0.00    +0.000 OA
ATOM     25  C   UNL     1     132.834 141.343 150.854  0.00  0.00    +0.000 C 
ATOM     26  C   UNL     1     132.897 142.138 151.066  0.00  0.00    +0.000 C 
ATOM     27  C   UNL     1     133.543 141.115 150.501  0.00  0.00    +0.000 C 
ATOM     28  C   UNL     1     133.647 142.402 150.844  0.00  0.00    +0.000 C 
ENDBRANCH  15  25
BRANCH   7  30
ATOM     29  O   UNL     1     132.658 139.327 153.816  0.00  0.00    +0.000 OA
ATOM     30  C   UNL     1     131.954 139.143 153.427  0.00  0.00    +0.000 C 
ENDBRANCH   7  30
BRANCH  22  31
ATOM     31  O   UNL     1     130.408 137.164 155.022  0.00  0.00    +0.000 OA
BRANCH  31  36
ATOM     32  O   UNL     1     131.045 135.988 154.520  0.00  0.00    +0.000 OA
ATOM     33  O   UNL     1     130.764 136.699 156.565  0.00  0.00    +0.000 OA
ATOM     34  O   UNL     1     131.580 135.290 156.834  0.00  0.00    +0.000 OA
ATOM     35  O   UNL     1     132.040 134.346 155.560  0.00  0.00    +0.000 OA
ATOM     36  C   UNL     1     130.816 136.460 155.157  0.00  0.00    +0.000 C 
ATOM     37  C   UNL     1     130.994 136.227 155.928  0.00  0.00    +0.000 C 
ATOM     38  C   UNL     1     131.402 135.522 156.063  0.00  0.00    +0.000 C 
ATOM     39  C   UNL     1     131.453 135.284 154.654  0.00  0.00    +0.000 C 
ATOM     40  C   UNL     1     131.632 135.051 155.425  0.00  0.00    +0.000 C 
ATOM     41  C   UNL     1     131.683 134.812 154.018  0.00  0.00    +0.000 C 
ENDBRANCH  31  36
ENDBRANCH  22  31
TORSDOF 4
ENDMDL
MODEL 6
REMARK VINA RESULT:     -11.7    108.884    111.948
REMARK  Name = 
REMARK  4 active torsions:
REMARK  status: ('A' for Active; 'I' for Inactive)
REMARK    1  A    between atoms: O_6  and  C_31
REMARK    2  A    between atoms: O_6  and  C_36
REMARK    3  A    between atoms: C_15  and  C_26
REMARK    4  A    between atoms: C_23  and  C_32
REMARK                            x       y       z     vdW  Elec       q    Type
REMARK                         _______ _______ _______ _____ _____    ______ ____
ROOT
ATOM      1  O   UNL     1     104.236 141.354 106.427  0.00  0.00    +0.000 OA
ATOM      2  O   UNL     1     104.352 141.350 103.877  0.00  0.00    +0.000 OA
ATOM      3  O   UNL     1     102.896 143.881 105.415  0.00  0.00    +0.000 OA
ATOM      4  O   UNL     1     102.939 143.868 104.591  0.00  0.00    +0.000 OA
ATOM      5  C   UNL     1     103.580 142.628 105.470  0.00  0.00    +0.000 C 
ATOM      6  C   UNL     1     103.901 142.007 105.909  0.00  0.00    +0.000 C 
ATOM      7  C   UNL     1     103.624 142.615 104.645  0.00  0.00    +0.000 C 
ATOM      8  C   UNL     1     103.857 142.020 106.733  0.00  0.00    +0.000 C 
ATOM      9  C   UNL     1     103.493 142.652 107.117  0.00  0.00    +0.000 C 
ATOM     10  C   UNL     1     103.988 141.982 104.261  0.00  0.00    +0.000 C 
ATOM     11  C   UNL     1     103.216 143.261 105.854  0.00  0.00    +0.000 C 
ATOM     12  C   UNL     1     104.265 141.375 105.524  0.00  0.00    +0.000 C 
ATOM     13  C   UNL     1     103.173 143.273 106.678  0.00  0.00    +0.000 C 
ATOM     14  C   UNL     1     103.303 143.236 104.207  0.00  0.00    +0.000 C 
ATOM     15  C   UNL     1     103.533 142.514 107.930  0.00  0.00    +0.000 C 
ATOM     16  C   UNL     1     104.122 141.490 107.307  0.00  0.00    +0.000 C 
ATOM     17  C   UNL     1     104.308 141.363 104.701  0.00  0.00    +0.000 C 
ATOM     18  C   UNL     1     104.031 141.970 103.437  0.00  0.00    +0.000 C 
ATOM     19  C   UNL     1     103.921 141.796 108.047  0.00  0.00    +0.000 C 
ATOM     20  C   UNL     1     103.148 143.244 107.576  0.00  0.00    +0.000 C 
ATOM     21  C   UNL     1     103.347 143.224 103.383  0.00  0.00    +0.000 C 
ATOM     22  C   UNL     1     103.711 142.591 102.998  0.00  0.00    +0.000 C 
ENDROOT
BRANCH  15  25
ATOM     23  O   UNL     1     103.133 143.977 109.432  0.00  0.00    +0.000 OA
ATOM     24  O   UNL     1     101.765 143.708 109.899  0.00  0.00    +0.000 OA
ATOM     25  C   UNL     1     103.236 143.008 108.521  0.00  0.00    +0.000 C 
ATOM     26  C   UNL     1     102.487 142.957 108.862  0.00  0.00    +0.000 C 
ATOM     27  C   UNL     1     103.636 143.637 108.872  0.00  0.00    +0.000 C 
ATOM     28  C   UNL     1     102.423 143.556 109.426  0.00  0.00    +0.000 C 
ENDBRANCH  15  25
BRANCH   7  30
ATOM     29  O   UNL     1     102.886 143.981 105.087  0.00  0.00    +0.000 OA
ATOM     30  C   UNL     1     103.260 143.248 105.030  0.00  0.00    +0.000 C 
ENDBRANCH   7  30
BRANCH  22  31
ATOM     31  O   UNL     1     103.754 142.579 102.174  0.00  0.00    +0.000 OA
BRANCH  31  36
ATOM     32  O   UNL     1     104.665 143.673 102.062  0.00  0.00    +0.000 OA
ATOM     33  O   UNL     1     104.446 141.866 100.857  0.00  0.00    +0.000 OA
ATOM     34  O   UNL     1     105.704 142.604 100.085  0.00  0.00    +0.000 OA
ATOM     35  O   UNL     1     106.270 144.055 100.632  0.00  0.00    +0.000 OA
ATOM     36  C   UNL     1     104.383 142.947 101.788  0.00  0.00    +0.000 C 
ATOM     37  C   UNL     1     104.729 142.591 101.130  0.00  0.00    +0.000 C 
ATOM     38  C   UNL     1     105.358 142.960 100.744  0.00  0.00    +0.000 C 
ATOM     39  C   UNL     1     105.295 144.042 101.676  0.00  0.00    +0.000 C 
ATOM     40  C   UNL     1     105.641 143.686 101.018  0.00  0.00    +0.000 C 
ATOM     41  C   UNL     1     105.578 144.767 101.949  0.00  0.00    +0.000 C 
ENDBRANCH  31  36
ENDBRANCH  22  31
TORSDOF 4
ENDMDL
MODEL 7
REMARK VINA RESULT:     -11.6      8.271     12.212
REMARK  Name = 
REMARK  4 active torsions:
REMARK  status: ('A' for Active; 'I' for Inactive)
REMARK    1  A    between atoms: O_6  and  C_31
REMARK    2  A    between atoms: O_6  and  C_36
REMARK    3  A    between atoms: C_15  and  C_26
REMARK    4  A    between atoms: C_23  and  C_32
REMARK                            x       y       z     vdW  Elec       q    Type
REMARK                         _______ _______ _______ _____ _____    ______ ____
ROOT
ATOM      1  O   UNL     1     125.409 151.390 207.827  0.00  0.00    +0.000 OA
ATOM      2  O   UNL     1     127.162 151.732 209.650  0.00  0.00    +0.000 OA
ATOM      3  O   UNL     1     127.683 153.026 206.661  0.00  0.00    +0.000 OA
ATOM      4  O   UNL     1     128.242 153.130 207.258  0.00  0.00    +0.000 OA
ATOM      5  C   UNL     1     126.863 152.275 207.558  0.00  0.00    +0.000 C 
ATOM      6  C   UNL     1     126.173 151.848 207.708  0.00  0.00    +0.000 C 
ATOM      7  C   UNL     1     127.423 152.379 208.156  0.00  0.00    +0.000 C 
ATOM      8  C   UNL     1     125.614 151.744 207.110  0.00  0.00    +0.000 C 
ATOM      9  C   UNL     1     125.745 152.068 206.363  0.00  0.00    +0.000 C 
ATOM     10  C   UNL     1     127.292 152.055 208.904  0.00  0.00    +0.000 C 
ATOM     11  C   UNL     1     126.994 152.599 206.810  0.00  0.00    +0.000 C 
ATOM     12  C   UNL     1     126.043 151.524 208.456  0.00  0.00    +0.000 C 
ATOM     13  C   UNL     1     126.435 152.496 206.213  0.00  0.00    +0.000 C 
ATOM     14  C   UNL     1     128.112 152.806 208.006  0.00  0.00    +0.000 C 
ATOM     15  C   UNL     1     125.099 151.877 205.886  0.00  0.00    +0.000 C 
ATOM     16  C   UNL     1     124.888 151.353 207.095  0.00  0.00    +0.000 C 
ATOM     17  C   UNL     1     126.602 151.628 209.053  0.00  0.00    +0.000 C 
ATOM     18  C   UNL     1     127.851 152.159 209.501  0.00  0.00    +0.000 C 
ATOM     19  C   UNL     1     124.570 151.435 206.338  0.00  0.00    +0.000 C 
ATOM     20  C   UNL     1     125.799 152.358 205.592  0.00  0.00    +0.000 C 
ATOM     21  C   UNL     1     128.671 152.910 208.603  0.00  0.00    +0.000 C 
ATOM     22  C   UNL     1     128.541 152.586 209.351  0.00  0.00    +0.000 C 
ENDROOT
BRANCH  15  25
ATOM     23  O   UNL     1     125.077 152.096 203.762  0.00  0.00    +0.000 OA
ATOM     24  O   UNL     1     124.275 153.298 203.491  0.00  0.00    +0.000 OA
ATOM     25  C   UNL     1     125.001 152.090 205.095  0.00  0.00    +0.000 C 
ATOM     26  C   UNL     1     124.575 152.740 204.818  0.00  0.00    +0.000 C 
ATOM     27  C   UNL     1     125.311 151.692 204.443  0.00  0.00    +0.000 C 
ATOM     28  C   UNL     1     124.622 152.744 203.994  0.00  0.00    +0.000 C 
ENDBRANCH  15  25
BRANCH   7  30
ATOM     29  O   UNL     1     127.956 153.139 206.836  0.00  0.00    +0.000 OA
ATOM     30  C   UNL     1     127.552 152.702 207.408  0.00  0.00    +0.000 C 
ENDBRANCH   7  30
BRANCH  22  31
ATOM     31  O   UNL     1     129.100 152.690 209.949  0.00  0.00    +0.000 OA
BRANCH  31  36
ATOM     32  O   UNL     1     128.617 153.944 210.433  0.00  0.00    +0.000 OA
ATOM     33  O   UNL     1     130.653 153.194 210.187  0.00  0.00    +0.000 OA
ATOM     34  O   UNL     1     130.946 154.702 210.792  0.00  0.00    +0.000 OA
ATOM     35  O   UNL     1     129.687 155.704 211.156  0.00  0.00    +0.000 OA
ATOM     36  C   UNL     1     129.247 153.443 210.250  0.00  0.00    +0.000 C 
ATOM     37  C   UNL     1     130.023 153.695 210.370  0.00  0.00    +0.000 C 
ATOM     38  C   UNL     1     130.170 154.449 210.672  0.00  0.00    +0.000 C 
ATOM     39  C   UNL     1     128.764 154.697 210.735  0.00  0.00    +0.000 C 
ATOM     40  C   UNL     1     129.540 154.950 210.854  0.00  0.00    +0.000 C 
ATOM     41  C   UNL     1     128.135 155.199 210.917  0.00  0.00    +0.000 C 
ENDBRANCH  31  36
ENDBRANCH  22  31
TORSDOF 4
ENDMDL
MODEL 8
REMARK VINA RESULT:     -11.5     52.099     55.056
REMARK  Name = 
REMARK  4 active torsions:
REMARK  status: ('A' for Active; 'I' for Inactive)
REMARK    1  A    between atoms: O_6  and  C_31
REMARK    2  A    between atoms: O_6  and  C_36
REMARK    3  A    between atoms: C_15  and  C_26
REMARK    4  A    between atoms: C_23  and  C_32
REMARK                            x       y       z     vdW  Elec       q    Type
REMARK                         _______ _______ _______ _____ _____    ______ ____
ROOT
ATOM      1  O   UNL     1     124.386 153.637 159.418  0.00  0.00    +0.000 OA
ATOM      2  O   UNL     1     124.643 154.100 156.921  0.00  0.00    +0.000 OA
ATOM      3  O   UNL     1     121.728 153.066 158.069  0.00  0.00    +0.000 OA
ATOM      4  O   UNL     1     121.824 153.219 157.265  0.00  0.00    +0.000 OA
ATOM      5  C   UNL     1     123.090 153.430 158.301  0.00  0.00    +0.000 C 
ATOM      6  C   UNL     1     123.724 153.536 158.819  0.00  0.00    +0.000 C 
ATOM      7  C   UNL     1     123.186 153.583 157.495  0.00  0.00    +0.000 C 
ATOM      8  C   UNL     1     123.629 153.383 159.624  0.00  0.00    +0.000 C 
ATOM      9  C   UNL     1     122.900 153.124 159.911  0.00  0.00    +0.000 C 
ATOM     10  C   UNL     1     123.915 153.842 157.208  0.00  0.00    +0.000 C 
ATOM     11  C   UNL     1     122.361 153.171 158.588  0.00  0.00    +0.000 C 
ATOM     12  C   UNL     1     124.453 153.794 158.531  0.00  0.00    +0.000 C 
ATOM     13  C   UNL     1     122.266 153.018 159.392  0.00  0.00    +0.000 C 
ATOM     14  C   UNL     1     122.553 153.477 156.978  0.00  0.00    +0.000 C 
ATOM     15  C   UNL     1     122.970 153.018 160.726  0.00  0.00    +0.000 C 
ATOM     16  C   UNL     1     124.149 153.436 160.261  0.00  0.00    +0.000 C 
ATOM     17  C   UNL     1     124.548 153.947 157.726  0.00  0.00    +0.000 C 
ATOM     18  C   UNL     1     124.011 153.995 156.403  0.00  0.00    +0.000 C 
ATOM     19  C   UNL     1     123.742 153.211 160.943  0.00  0.00    +0.000 C 
ATOM     20  C   UNL     1     122.208 152.864 160.276  0.00  0.00    +0.000 C 
ATOM     21  C   UNL     1     122.648 153.630 156.173  0.00  0.00    +0.000 C 
ATOM     22  C   UNL     1     123.377 153.889 155.885  0.00  0.00    +0.000 C 
ENDROOT
BRANCH  15  25
ATOM     23  O   UNL     1     121.578 151.982 161.970  0.00  0.00    +0.000 OA
ATOM     24  O   UNL     1     120.695 153.016 162.530  0.00  0.00    +0.000 OA
ATOM     25  C   UNL     1     122.372 152.763 161.235  0.00  0.00    +0.000 C 
ATOM     26  C   UNL     1     121.817 153.245 161.609  0.00  0.00    +0.000 C 
ATOM     27  C   UNL     1     122.225 151.983 161.458  0.00  0.00    +0.000 C 
ATOM     28  C   UNL     1     121.326 152.763 162.064  0.00  0.00    +0.000 C 
ENDBRANCH  15  25
BRANCH   7  30
ATOM     29  O   UNL     1     121.660 153.116 157.737  0.00  0.00    +0.000 OA
ATOM     30  C   UNL     1     122.457 153.324 157.783  0.00  0.00    +0.000 C 
ENDBRANCH   7  30
BRANCH  22  31
ATOM     31  O   UNL     1     123.472 154.042 155.080  0.00  0.00    +0.000 OA
BRANCH  31  36
ATOM     32  O   UNL     1     122.652 155.211 155.102  0.00  0.00    +0.000 OA
ATOM     33  O   UNL     1     124.330 154.666 153.817  0.00  0.00    +0.000 OA
ATOM     34  O   UNL     1     123.938 156.149 153.206  0.00  0.00    +0.000 OA
ATOM     35  O   UNL     1     122.688 157.006 153.859  0.00  0.00    +0.000 OA
ATOM     36  C   UNL     1     123.277 154.783 154.775  0.00  0.00    +0.000 C 
ATOM     37  C   UNL     1     123.705 155.095 154.143  0.00  0.00    +0.000 C 
ATOM     38  C   UNL     1     123.509 155.836 153.837  0.00  0.00    +0.000 C 
ATOM     39  C   UNL     1     122.455 155.952 154.796  0.00  0.00    +0.000 C 
ATOM     40  C   UNL     1     122.884 156.265 154.164  0.00  0.00    +0.000 C 
ATOM     41  C   UNL     1     121.831 156.381 155.122  0.00  0.00    +0.000 C 
ENDBRANCH  31  36
ENDBRANCH  22  31
TORSDOF 4
ENDMDL
MODEL 9
REMARK VINA RESULT:     -11.4     61.062     63.204
REMARK  Name = 
REMARK  4 active torsions:
REMARK  status: ('A' for Active; 'I' for Inactive)
REMARK    1  A    between atoms: O_6  and  C_31
REMARK    2  A    between atoms: O_6  and  C_36
REMARK    3  A    between atoms: C_15  and  C_26
REMARK    4  A    between atoms: C_23  and  C_32
REMARK                            x       y       z     vdW  Elec       q    Type
REMARK                         _______ _______ _______ _____ _____    ______ ____
ROOT
ATOM      1  O   UNL     1     130.388 139.255 151.473  0.00  0.00    +0.000 OA
ATOM      2  O   UNL     1     129.969 138.123 153.722  0.00  0.00    +0.000 OA
ATOM      3  O   UNL     1     132.077 136.737 151.595  0.00  0.00    +0.000 OA
ATOM      4  O   UNL     1     131.933 136.381 152.325  0.00  0.00    +0.000 OA
ATOM      5  C   UNL     1     131.166 137.787 151.928  0.00  0.00    +0.000 C 
ATOM      6  C   UNL     1     130.783 138.490 151.730  0.00  0.00    +0.000 C 
ATOM      7  C   UNL     1     131.022 137.430 152.659  0.00  0.00    +0.000 C 
ATOM      8  C   UNL     1     130.926 138.846 151.000  0.00  0.00    +0.000 C 
ATOM      9  C   UNL     1     131.454 138.500 150.469  0.00  0.00    +0.000 C 
ATOM     10  C   UNL     1     130.495 137.777 153.191  0.00  0.00    +0.000 C 
ATOM     11  C   UNL     1     131.694 137.440 151.397  0.00  0.00    +0.000 C 
ATOM     12  C   UNL     1     130.256 138.836 152.262  0.00  0.00    +0.000 C 
ATOM     13  C   UNL     1     131.837 137.796 150.667  0.00  0.00    +0.000 C 
ATOM     14  C   UNL     1     131.406 136.727 152.857  0.00  0.00    +0.000 C 
ATOM     15  C   UNL     1     131.485 138.975 149.794  0.00  0.00    +0.000 C 
ATOM     16  C   UNL     1     130.632 139.535 150.655  0.00  0.00    +0.000 C 
ATOM     17  C   UNL     1     130.112 138.479 152.992  0.00  0.00    +0.000 C 
ATOM     18  C   UNL     1     130.352 137.420 153.920  0.00  0.00    +0.000 C 
ATOM     19  C   UNL     1     130.977 139.614 149.909  0.00  0.00    +0.000 C 
ATOM     20  C   UNL     1     131.963 138.219 149.884  0.00  0.00    +0.000 C 
ATOM     21  C   UNL     1     131.262 136.371 153.586  0.00  0.00    +0.000 C 
ATOM     22  C   UNL     1     130.735 136.717 154.119  0.00  0.00    +0.000 C 
ENDROOT
BRANCH  15  25
ATOM     23  O   UNL     1     132.968 138.806 148.269  0.00  0.00    +0.000 OA
ATOM     24  O   UNL     1     132.323 138.089 147.159  0.00  0.00    +0.000 OA
ATOM     25  C   UNL     1     131.944 138.834 149.123  0.00  0.00    +0.000 C 
ATOM     26  C   UNL     1     131.695 138.444 148.440  0.00  0.00    +0.000 C 
ATOM     27  C   UNL     1     132.730 139.058 149.018  0.00  0.00    +0.000 C 
ATOM     28  C   UNL     1     132.329 138.426 147.911  0.00  0.00    +0.000 C 
ENDBRANCH  15  25
BRANCH   7  30
ATOM     29  O   UNL     1     132.073 136.509 151.851  0.00  0.00    +0.000 OA
ATOM     30  C   UNL     1     131.549 137.084 152.127  0.00  0.00    +0.000 C 
ENDBRANCH   7  30
BRANCH  22  31
ATOM     31  O   UNL     1     130.592 136.360 154.849  0.00  0.00    +0.000 OA
BRANCH  31  36
ATOM     32  O   UNL     1     129.485 135.522 154.513  0.00  0.00    +0.000 OA
ATOM     33  O   UNL     1     131.297 135.107 155.657  0.00  0.00    +0.000 OA
ATOM     34  O   UNL     1     130.542 133.641 155.726  0.00  0.00    +0.000 OA
ATOM     35  O   UNL     1     129.082 133.429 154.986  0.00  0.00    +0.000 OA
ATOM     36  C   UNL     1     130.215 135.628 154.883  0.00  0.00    +0.000 C 
ATOM     37  C   UNL     1     130.567 135.001 155.287  0.00  0.00    +0.000 C 
ATOM     38  C   UNL     1     130.190 134.268 155.322  0.00  0.00    +0.000 C 
ATOM     39  C   UNL     1     129.107 134.789 154.547  0.00  0.00    +0.000 C 
ATOM     40  C   UNL     1     129.460 134.162 154.952  0.00  0.00    +0.000 C 
ATOM     41  C   UNL     1     128.378 134.683 154.178  0.00  0.00    +0.000 C 
ENDBRANCH  31  36
ENDBRANCH  22  31
TORSDOF 4
ENDMDL
MODEL 10
REMARK VINA RESULT:     -11.3     48.918     52.512
REMARK  Name = 
REMARK  4 active torsions:
REMARK  status: ('A' for Active; 'I' for Inactive)
REMARK    1  A    between atoms: O_6  and  C_31
REMARK    2  A    between atoms: O_6  and  C_36
REMARK    3  A    between atoms: C_15  and  C_26
REMARK    4  A    between atoms: C_23  and  C_32
REMARK                            x       y       z     vdW  Elec       q    Type
REMARK                         _______ _______ _______ _____ _____    ______ ____
ROOT
ATOM      1  O   UNL     1     103.552 149.150 171.443  0.00  0.00    +0.000 OA
ATOM      2  O   UNL     1     102.923 149.156 168.969  0.00  0.00    +0.000 OA
ATOM      3  O   UNL     1     106.099 149.429 169.818  0.00  0.00    +0.000 OA
ATOM      4  O   UNL     1     105.884 149.430 169.022  0.00  0.00    +0.000 OA
ATOM      5  C   UNL     1     104.727 149.292 170.190  0.00  0.00    +0.000 C 
ATOM      6  C   UNL     1     104.148 149.223 170.775  0.00  0.00    +0.000 C 
ATOM      7  C   UNL     1     104.510 149.293 169.393  0.00  0.00    +0.000 C 
ATOM      8  C   UNL     1     104.364 149.222 171.571  0.00  0.00    +0.000 C 
ATOM      9  C   UNL     1     105.158 149.291 171.783  0.00  0.00    +0.000 C 
ATOM     10  C   UNL     1     103.716 149.225 169.181  0.00  0.00    +0.000 C 
ATOM     11  C   UNL     1     105.521 149.360 170.402  0.00  0.00    +0.000 C 
ATOM     12  C   UNL     1     103.354 149.155 170.562  0.00  0.00    +0.000 C 
ATOM     13  C   UNL     1     105.737 149.360 171.199  0.00  0.00    +0.000 C 
ATOM     14  C   UNL     1     105.089 149.362 168.810  0.00  0.00    +0.000 C 
ATOM     15  C   UNL     1     105.204 149.273 172.607  0.00  0.00    +0.000 C 
ATOM     16  C   UNL     1     103.919 149.163 172.263  0.00  0.00    +0.000 C 
ATOM     17  C   UNL     1     103.138 149.156 169.765  0.00  0.00    +0.000 C 
ATOM     18  C   UNL     1     103.501 149.225 168.385  0.00  0.00    +0.000 C 
ATOM     19  C   UNL     1     104.439 149.195 172.903  0.00  0.00    +0.000 C 
ATOM     20  C   UNL     1     105.926 149.354 172.077  0.00  0.00    +0.000 C 
ATOM     21  C   UNL     1     104.874 149.362 168.014  0.00  0.00    +0.000 C 
ATOM     22  C   UNL     1     104.080 149.294 167.801  0.00  0.00    +0.000 C 
ENDROOT
BRANCH  15  25
ATOM     23  O   UNL     1     106.944 149.817 173.717  0.00  0.00    +0.000 OA
ATOM     24  O   UNL     1     107.548 148.553 174.162  0.00  0.00    +0.000 OA
ATOM     25  C   UNL     1     105.895 149.326 173.054  0.00  0.00    +0.000 C 
ATOM     26  C   UNL     1     106.324 148.691 173.360  0.00  0.00    +0.000 C 
ATOM     27  C   UNL     1     106.278 150.022 173.275  0.00  0.00    +0.000 C 
ATOM     28  C   UNL     1     106.973 148.994 173.769  0.00  0.00    +0.000 C 
ENDBRANCH  15  25
BRANCH   7  30
ATOM     29  O   UNL     1     106.117 149.429 169.475  0.00  0.00    +0.000 OA
ATOM     30  C   UNL     1     105.305 149.361 169.606  0.00  0.00    +0.000 C 
ENDBRANCH   7  30
BRANCH  22  31
ATOM     31  O   UNL     1     103.864 149.295 167.005  0.00  0.00    +0.000 OA
BRANCH  31  36
ATOM     32  O   UNL     1     104.057 147.910 166.712  0.00  0.00    +0.000 OA
ATOM     33  O   UNL     1     104.586 149.698 165.577  0.00  0.00    +0.000 OA
ATOM     34  O   UNL     1     105.141 148.514 164.570  0.00  0.00    +0.000 OA
ATOM     35  O   UNL     1     104.973 146.927 164.992  0.00  0.00    +0.000 OA
ATOM     36  C   UNL     1     104.141 148.704 166.501  0.00  0.00    +0.000 C 
ATOM     37  C   UNL     1     104.502 148.905 165.787  0.00  0.00    +0.000 C 
ATOM     38  C   UNL     1     104.780 148.313 165.284  0.00  0.00    +0.000 C 
ATOM     39  C   UNL     1     104.335 147.318 166.209  0.00  0.00    +0.000 C 
ATOM     40  C   UNL     1     104.696 147.519 165.495  0.00  0.00    +0.000 C 
ATOM     41  C   UNL     1     104.251 146.525 166.419  0.00  0.00    +0.000 C 
ENDBRANCH  31  36
ENDBRANCH  22  31
TORSDOF 4
ENDMDL
MODEL 11
REMARK VINA RESULT:     -11.1    115.000    117.798
REMARK  Name = 
REMARK  4 active torsions:
REMARK  status: ('A' for Active; 'I' for Inactive)
REMARK    1  A    between atoms: O_6  and  C_31
REMARK    2  A    between atoms: O_6  and  C_36
REMARK    3  A    between atoms: C_15  and  C_26
REMARK    4  A    between atoms: C_23  and  C_32
REMARK                            x       y       z     vdW  Elec       q    Type
REMARK                         _______ _______ _______ _____ _____    ______ ____
ROOT
ATOM      1  O   UNL     1      93.520 133.881 103.860  0.00  0.00    +0.000 OA
ATOM      2  O   UNL     1      91.044 134.498 103.832  0.00  0.00    +0.000 OA
ATOM      3  O   UNL     1      93.268 136.817 104.581  0.00  0.00    +0.000 OA
ATOM      4  O   UNL     1      92.465 137.005 104.569  0.00  0.00    +0.000 OA
ATOM      5  C   UNL     1      92.960 135.470 104.219  0.00  0.00    +0.000 C 
ATOM      6  C   UNL     1      93.207 134.703 104.044  0.00  0.00    +0.000 C 
ATOM      7  C   UNL     1      92.155 135.658 104.206  0.00  0.00    +0.000 C 
ATOM      8  C   UNL     1      94.010 134.515 104.056  0.00  0.00    +0.000 C 
ATOM      9  C   UNL     1      94.566 135.095 104.243  0.00  0.00    +0.000 C 
ATOM     10  C   UNL     1      91.599 135.078 104.019  0.00  0.00    +0.000 C 
ATOM     11  C   UNL     1      93.516 136.050 104.406  0.00  0.00    +0.000 C 
ATOM     12  C   UNL     1      92.650 134.123 103.856  0.00  0.00    +0.000 C 
ATOM     13  C   UNL     1      94.319 135.863 104.418  0.00  0.00    +0.000 C 
ATOM     14  C   UNL     1      91.909 136.425 104.382  0.00  0.00    +0.000 C 
ATOM     15  C   UNL     1      95.315 134.750 104.212  0.00  0.00    +0.000 C 
ATOM     16  C   UNL     1      94.415 133.812 103.909  0.00  0.00    +0.000 C 
ATOM     17  C   UNL     1      91.847 134.311 103.844  0.00  0.00    +0.000 C 
ATOM     18  C   UNL     1      90.796 135.265 104.007  0.00  0.00    +0.000 C 
ATOM     19  C   UNL     1      95.221 133.957 104.005  0.00  0.00    +0.000 C 
ATOM     20  C   UNL     1      95.182 135.614 104.420  0.00  0.00    +0.000 C 
ATOM     21  C   UNL     1      91.106 136.613 104.369  0.00  0.00    +0.000 C 
ATOM     22  C   UNL     1      90.549 136.033 104.182  0.00  0.00    +0.000 C 
ENDROOT
BRANCH  15  25
ATOM     23  O   UNL     1      97.137 135.861 104.205  0.00  0.00    +0.000 OA
ATOM     24  O   UNL     1      97.701 135.715 105.555  0.00  0.00    +0.000 OA
ATOM     25  C   UNL     1      96.031 135.131 104.361  0.00  0.00    +0.000 C 
ATOM     26  C   UNL     1      96.444 135.124 105.075  0.00  0.00    +0.000 C 
ATOM     27  C   UNL     1      96.459 135.587 103.823  0.00  0.00    +0.000 C 
ATOM     28  C   UNL     1      97.128 135.575 104.979  0.00  0.00    +0.000 C 
ENDBRANCH  15  25
BRANCH   7  30
ATOM     29  O   UNL     1      92.973 136.992 104.602  0.00  0.00    +0.000 OA
ATOM     30  C   UNL     1      92.712 136.237 104.394  0.00  0.00    +0.000 C 
ENDBRANCH   7  30
BRANCH  22  31
ATOM     31  O   UNL     1      89.746 136.221 104.170  0.00  0.00    +0.000 OA
BRANCH  31  36
ATOM     32  O   UNL     1      89.781 136.936 102.934  0.00  0.00    +0.000 OA
ATOM     33  O   UNL     1      88.231 135.674 103.812  0.00  0.00    +0.000 OA
ATOM     34  O   UNL     1      87.508 136.115 102.396  0.00  0.00    +0.000 OA
ATOM     35  O   UNL     1      88.300 137.104 101.338  0.00  0.00    +0.000 OA
ATOM     36  C   UNL     1      89.384 136.441 103.462  0.00  0.00    +0.000 C 
ATOM     37  C   UNL     1      88.627 136.168 103.283  0.00  0.00    +0.000 C 
ATOM     38  C   UNL     1      88.265 136.389 102.575  0.00  0.00    +0.000 C 
ATOM     39  C   UNL     1      89.419 137.157 102.226  0.00  0.00    +0.000 C 
ATOM     40  C   UNL     1      88.662 136.883 102.046  0.00  0.00    +0.000 C 
ATOM     41  C   UNL     1      89.815 137.651 101.697  0.00  0.00    +0.000 C 
ENDBRANCH  31  36
ENDBRANCH  22  31
TORSDOF 4
ENDMDL
MODEL 12
REMARK VINA RESULT:     -11.0     51.325     53.722
REMARK  Name = 
REMARK  4 active torsions:
REMARK  status: ('A' for Active; 'I' for Inactive)
REMARK    1  A    between atoms: O_6  and  C_31
REMARK    2  A    between atoms: O_6  and  C_36
REMARK    3  A    between atoms: C_15  and  C_26
REMARK    4  A    between atoms: C_23  and  C_32
REMARK                            x       y       z     vdW  Elec       q    Type
REMARK                         _______ _______ _______ _____ _____    ______ ____
ROOT
ATOM      1  O   UNL     1     126.024 155.828 158.624  0.00  0.00    +0.000 OA
ATOM      2  O   UNL     1     123.853 155.112 159.759  0.00  0.00    +0.000 OA
ATOM      3  O   UNL     1     125.141 153.193 157.405  0.00  0.00    +0.000 OA
ATOM      4  O   UNL     1     124.440 152.972 157.779  0.00  0.00    +0.000 OA
ATOM      5  C   UNL     1     125.199 154.374 158.207  0.00  0.00    +0.000 C 
ATOM      6  C   UNL     1     125.578 155.074 158.422  0.00  0.00    +0.000 C 
ATOM      7  C   UNL     1     124.497 154.153 158.582  0.00  0.00    +0.000 C 
ATOM      8  C   UNL     1     126.279 155.295 158.048  0.00  0.00    +0.000 C 
ATOM      9  C   UNL     1     126.601 154.815 157.459  0.00  0.00    +0.000 C 
ATOM     10  C   UNL     1     124.175 154.633 159.171  0.00  0.00    +0.000 C 
ATOM     11  C   UNL     1     125.521 153.893 157.619  0.00  0.00    +0.000 C 
ATOM     12  C   UNL     1     125.255 155.554 159.011  0.00  0.00    +0.000 C 
ATOM     13  C   UNL     1     126.222 154.114 157.244  0.00  0.00    +0.000 C 
ATOM     14  C   UNL     1     124.118 153.452 158.367  0.00  0.00    +0.000 C 
ATOM     15  C   UNL     1     127.294 155.173 157.189  0.00  0.00    +0.000 C 
ATOM     16  C   UNL     1     126.773 155.949 158.142  0.00  0.00    +0.000 C 
ATOM     17  C   UNL     1     124.554 155.333 159.385  0.00  0.00    +0.000 C 
ATOM     18  C   UNL     1     123.474 154.412 159.545  0.00  0.00    +0.000 C 
ATOM     19  C   UNL     1     127.400 155.874 157.611  0.00  0.00    +0.000 C 
ATOM     20  C   UNL     1     126.987 154.394 156.864  0.00  0.00    +0.000 C 
ATOM     21  C   UNL     1     123.417 153.232 158.742  0.00  0.00    +0.000 C 
ATOM     22  C   UNL     1     123.094 153.711 159.331  0.00  0.00    +0.000 C 
ENDROOT
BRANCH  15  25
ATOM     23  O   UNL     1     128.298 154.563 155.407  0.00  0.00    +0.000 OA
ATOM     24  O   UNL     1     129.536 153.905 155.849  0.00  0.00    +0.000 OA
ATOM     25  C   UNL     1     127.793 154.881 156.600  0.00  0.00    +0.000 C 
ATOM     26  C   UNL     1     128.511 154.494 156.723  0.00  0.00    +0.000 C 
ATOM     27  C   UNL     1     127.661 154.923 155.788  0.00  0.00    +0.000 C 
ATOM     28  C   UNL     1     128.824 154.298 155.985  0.00  0.00    +0.000 C 
ENDBRANCH  15  25
BRANCH   7  30
ATOM     29  O   UNL     1     124.864 153.014 157.499  0.00  0.00    +0.000 OA
ATOM     30  C   UNL     1     124.819 153.673 157.993  0.00  0.00    +0.000 C 
ENDBRANCH   7  30
BRANCH  22  31
ATOM     31  O   UNL     1     122.393 153.490 159.705  0.00  0.00    +0.000 OA
BRANCH  31  36
ATOM     32  O   UNL     1     122.996 152.455 160.482  0.00  0.00    +0.000 OA
ATOM     33  O   UNL     1     121.287 153.748 160.902  0.00  0.00    +0.000 OA
ATOM     34  O   UNL     1     121.337 152.840 162.279  0.00  0.00    +0.000 OA
ATOM     35  O   UNL     1     122.493 151.675 162.459  0.00  0.00    +0.000 OA
ATOM     36  C   UNL     1     122.418 153.037 160.393  0.00  0.00    +0.000 C 
ATOM     37  C   UNL     1     121.865 153.165 160.992  0.00  0.00    +0.000 C 
ATOM     38  C   UNL     1     121.890 152.711 161.681  0.00  0.00    +0.000 C 
ATOM     39  C   UNL     1     123.021 152.001 161.171  0.00  0.00    +0.000 C 
ATOM     40  C   UNL     1     122.468 152.129 161.770  0.00  0.00    +0.000 C 
ATOM     41  C   UNL     1     123.598 151.419 161.261  0.00  0.00    +0.000 C 
ENDBRANCH  31  36
ENDBRANCH  22  31
TORSDOF 4
ENDMDL
MODEL 13
REMARK VINA RESULT:     -10.9     90.288     92.846
REMARK  Name = 
REMARK  4 active torsions:
REMARK  status: ('A' for Active; 'I' for Inactive)
REMARK    1  A    between atoms: O_6  and  C_31
REMARK    2  A    between atoms: O_6  and  C_36
REMARK    3  A    between atoms: C_15  and  C_26
REMARK    4  A    between atoms: C_23  and  C_32
REMARK                            x       y       z     vdW  Elec       q    Type
REMARK                         _______ _______ _______ _____ _____    ______ ____
ROOT
ATOM      1  O   UNL     1     122.974 139.998 123.173  0.00  0.00    +0.000 OA
ATOM      2  O   UNL     1     122.806 137.925 121.694  0.00  0.00    +0.000 OA
ATOM      3  O   UNL     1     121.524 140.770 120.622  0.00  0.00    +0.000 OA
ATOM      4  O   UNL     1     121.476 140.093 120.153  0.00  0.00    +0.000 OA
ATOM      5  C   UNL     1     122.213 140.025 121.627  0.00  0.00    +0.000 C 
ATOM      6  C   UNL     1     122.582 139.991 122.365  0.00  0.00    +0.000 C 
ATOM      7  C   UNL     1     122.165 139.347 121.158  0.00  0.00    +0.000 C 
ATOM      8  C   UNL     1     122.630 140.667 122.834  0.00  0.00    +0.000 C 
ATOM      9  C   UNL     1     122.309 141.378 122.566  0.00  0.00    +0.000 C 
ATOM     10  C   UNL     1     122.486 138.636 121.427  0.00  0.00    +0.000 C 
ATOM     11  C   UNL     1     121.892 140.736 121.359  0.00  0.00    +0.000 C 
ATOM     12  C   UNL     1     122.902 139.279 122.633  0.00  0.00    +0.000 C 
ATOM     13  C   UNL     1     121.941 141.413 121.828  0.00  0.00    +0.000 C 
ATOM     14  C   UNL     1     121.796 139.382 120.421  0.00  0.00    +0.000 C 
ATOM     15  C   UNL     1     122.439 141.951 123.146  0.00  0.00    +0.000 C 
ATOM     16  C   UNL     1     122.958 140.800 123.579  0.00  0.00    +0.000 C 
ATOM     17  C   UNL     1     122.854 138.602 122.164  0.00  0.00    +0.000 C 
ATOM     18  C   UNL     1     122.438 137.959 120.957  0.00  0.00    +0.000 C 
ATOM     19  C   UNL     1     122.840 141.594 123.772  0.00  0.00    +0.000 C 
ATOM     20  C   UNL     1     122.016 142.124 122.372  0.00  0.00    +0.000 C 
ATOM     21  C   UNL     1     121.748 138.705 119.952  0.00  0.00    +0.000 C 
ATOM     22  C   UNL     1     122.069 137.993 120.220  0.00  0.00    +0.000 C 
ENDROOT
BRANCH  15  25
ATOM     23  O   UNL     1     122.191 144.047 122.825  0.00  0.00    +0.000 OA
ATOM     24  O   UNL     1     120.930 144.408 123.488  0.00  0.00    +0.000 OA
ATOM     25  C   UNL     1     122.209 142.743 123.105  0.00  0.00    +0.000 C 
ATOM     26  C   UNL     1     121.526 143.065 123.436  0.00  0.00    +0.000 C 
ATOM     27  C   UNL     1     122.620 143.349 122.727  0.00  0.00    +0.000 C 
ATOM     28  C   UNL     1     121.514 143.872 123.263  0.00  0.00    +0.000 C 
ENDBRANCH  15  25
BRANCH   7  30
ATOM     29  O   UNL     1     121.469 140.562 120.355  0.00  0.00    +0.000 OA
ATOM     30  C   UNL     1     121.845 140.059 120.890  0.00  0.00    +0.000 C 
ENDBRANCH   7  30
BRANCH  22  31
ATOM     31  O   UNL     1     122.021 137.317 119.751  0.00  0.00    +0.000 OA
BRANCH  31  36
ATOM     32  O   UNL     1     120.607 137.160 119.887  0.00  0.00    +0.000 OA
ATOM     33  O   UNL     1     122.195 135.678 119.666  0.00  0.00    +0.000 OA
ATOM     34  O   UNL     1     120.868 134.701 119.759  0.00  0.00    +0.000 OA
ATOM     35  O   UNL     1     119.367 135.364 119.938  0.00  0.00    +0.000 OA
ATOM     36  C   UNL     1     121.358 136.828 119.797  0.00  0.00    +0.000 C 
ATOM     37  C   UNL     1     121.445 136.009 119.755  0.00  0.00    +0.000 C 
ATOM     38  C   UNL     1     120.781 135.521 119.802  0.00  0.00    +0.000 C 
ATOM     39  C   UNL     1     119.944 136.671 119.934  0.00  0.00    +0.000 C 
ATOM     40  C   UNL     1     120.031 135.852 119.891  0.00  0.00    +0.000 C 
ATOM     41  C   UNL     1     119.193 137.002 120.023  0.00  0.00    +0.000 C 
ENDBRANCH  31  36
ENDBRANCH  22  31
TORSDOF 4
ENDMDL
MODEL 14
REMARK VINA RESULT:     -10.8     66.261     68.024
REMARK  Name = 
REMARK  4 active torsions:
REMARK  status: ('A' for Active; 'I' for Inactive)
REMARK    1  A    between atoms: O_6  and  C_31
REMARK    2  A    between atoms: O_6  and  C_36
REMARK    3  A    between atoms: C_15  and  C_26
REMARK    4  A    between atoms: C_23  and  C_32
REMARK                            x       y       z     vdW  Elec       q    Type
REMARK                         _______ _______ _______ _____ _____    ______ ____
ROOT
ATOM      1  O   UNL     1     153.430 105.333 178.012  0.00  0.00    +0.000 OA
ATOM      2  O   UNL     1     151.414 103.791 178.271  0.00  0.00    +0.000 OA
ATOM      3  O   UNL     1     153.976 102.791 176.449  0.00  0.00    +0.000 OA
ATOM      4  O   UNL     1     153.318 102.301 176.540  0.00  0.00    +0.000 OA
ATOM      5  C   UNL     1     153.353 103.781 177.269  0.00  0.00    +0.000 C 
ATOM      6  C   UNL     1     153.370 104.521 177.634  0.00  0.00    +0.000 C 
ATOM      7  C   UNL     1     152.694 103.291 177.360  0.00  0.00    +0.000 C 
ATOM      8  C   UNL     1     154.027 105.011 177.543  0.00  0.00    +0.000 C 
ATOM      9  C   UNL     1     154.668 104.760 177.087  0.00  0.00    +0.000 C 
ATOM     10  C   UNL     1     152.054 103.541 177.816  0.00  0.00    +0.000 C 
ATOM     11  C   UNL     1     153.993 103.530 176.813  0.00  0.00    +0.000 C 
ATOM     12  C   UNL     1     152.729 104.771 178.089  0.00  0.00    +0.000 C 
ATOM     13  C   UNL     1     154.651 104.020 176.722  0.00  0.00    +0.000 C 
ATOM     14  C   UNL     1     152.678 102.551 176.996  0.00  0.00    +0.000 C 
ATOM     15  C   UNL     1     155.236 105.359 177.097  0.00  0.00    +0.000 C 
ATOM     16  C   UNL     1     154.200 105.763 177.834  0.00  0.00    +0.000 C 
ATOM     17  C   UNL     1     152.071 104.281 178.180  0.00  0.00    +0.000 C 
ATOM     18  C   UNL     1     151.396 103.051 177.907  0.00  0.00    +0.000 C 
ATOM     19  C   UNL     1     154.947 105.978 177.558  0.00  0.00    +0.000 C 
ATOM     20  C   UNL     1     155.345 104.586 176.651  0.00  0.00    +0.000 C 
ATOM     21  C   UNL     1     152.020 102.062 177.087  0.00  0.00    +0.000 C 
ATOM     22  C   UNL     1     151.379 102.311 177.542  0.00  0.00    +0.000 C 
ENDROOT
BRANCH  15  25
ATOM     23  O   UNL     1     156.909 105.442 175.773  0.00  0.00    +0.000 OA
ATOM     24  O   UNL     1     158.069 105.006 176.565  0.00  0.00    +0.000 OA
ATOM     25  C   UNL     1     155.966 105.339 176.712  0.00  0.00    +0.000 C 
ATOM     26  C   UNL     1     156.684 105.114 177.047  0.00  0.00    +0.000 C 
ATOM     27  C   UNL     1     156.104 105.543 175.924  0.00  0.00    +0.000 C 
ATOM     28  C   UNL     1     157.268 105.177 176.468  0.00  0.00    +0.000 C 
ENDBRANCH  15  25
BRANCH   7  30
ATOM     29  O   UNL     1     153.764 102.522 176.428  0.00  0.00    +0.000 OA
ATOM     30  C   UNL     1     153.335 103.041 176.905  0.00  0.00    +0.000 C 
ENDBRANCH   7  30
BRANCH  22  31
ATOM     31  O   UNL     1     150.722 101.822 177.633  0.00  0.00    +0.000 OA
BRANCH  31  36
ATOM     32  O   UNL     1     151.151 101.140 178.813  0.00  0.00    +0.000 OA
ATOM     33  O   UNL     1     150.104 100.411 177.042  0.00  0.00    +0.000 OA
ATOM     34  O   UNL     1     150.225  99.022 177.927  0.00  0.00    +0.000 OA
ATOM     35  O   UNL     1     150.962  99.046 179.403  0.00  0.00    +0.000 OA
ATOM     36  C   UNL     1     150.782 101.128 178.075  0.00  0.00    +0.000 C 
ATOM     37  C   UNL     1     150.473 100.422 177.780  0.00  0.00    +0.000 C 
ATOM     38  C   UNL     1     150.533  99.728 178.222  0.00  0.00    +0.000 C 
ATOM     39  C   UNL     1     151.211 100.446 179.255  0.00  0.00    +0.000 C 
ATOM     40  C   UNL     1     150.902  99.741 178.960  0.00  0.00    +0.000 C 
ATOM     41  C   UNL     1     151.580 100.458 179.993  0.00  0.00    +0.000 C 
ENDBRANCH  31  36
ENDBRANCH  22  31
TORSDOF 4
ENDMDL
MODEL 15
REMARK VINA RESULT:     -10.8     57.213     59.221
REMARK  Name = 
REMARK  4 active torsions:
REMARK  status: ('A' for Active; 'I' for Inactive)
REMARK    1  A    between atoms: O_6  and  C_31
REMARK    2  A    between atoms: O_6  and  C_36
REMARK    3  A    between atoms: C_15  and  C_26
REMARK    4  A    between atoms: C_23  and  C_32
REMARK                            x       y       z     vdW  Elec       q    Type
REMARK                         _______ _______ _______ _____ _____    ______ ____
ROOT
ATOM      1  O   UNL     1      94.607 122.142 186.059  0.00  0.00    +0.000 OA
ATOM      2  O   UNL     1      96.171 120.420 185.008  0.00  0.00    +0.000 OA
ATOM      3  O   UNL     1      97.453 122.845 186.842  0.00  0.00    +0.000 OA
ATOM      4  O   UNL     1      97.948 122.282 186.498  0.00  0.00    +0.000 OA
ATOM      5  C   UNL     1      96.317 122.195 186.270  0.00  0.00    +0.000 C 
ATOM      6  C   UNL     1      95.500 122.152 186.156  0.00  0.00    +0.000 C 
ATOM      7  C   UNL     1      96.812 121.632 185.925  0.00  0.00    +0.000 C 
ATOM      8  C   UNL     1      95.005 122.714 186.501  0.00  0.00    +0.000 C 
ATOM      9  C   UNL     1      95.326 123.320 186.959  0.00  0.00    +0.000 C 
ATOM     10  C   UNL     1      96.491 121.026 185.466  0.00  0.00    +0.000 C 
ATOM     11  C   UNL     1      96.638 122.801 186.729  0.00  0.00    +0.000 C 
ATOM     12  C   UNL     1      95.180 121.545 185.698  0.00  0.00    +0.000 C 
ATOM     13  C   UNL     1      96.142 123.364 187.073  0.00  0.00    +0.000 C 
ATOM     14  C   UNL     1      97.627 121.676 186.039  0.00  0.00    +0.000 C 
ATOM     15  C   UNL     1      94.705 123.793 187.228  0.00  0.00    +0.000 C 
ATOM     16  C   UNL     1      94.186 122.812 186.486  0.00  0.00    +0.000 C 
ATOM     17  C   UNL     1      95.675 120.983 185.353  0.00  0.00    +0.000 C 
ATOM     18  C   UNL     1      96.986 120.463 185.122  0.00  0.00    +0.000 C 
ATOM     19  C   UNL     1      94.001 123.479 186.935  0.00  0.00    +0.000 C 
ATOM     20  C   UNL     1      95.565 123.954 187.429  0.00  0.00    +0.000 C 
ATOM     21  C   UNL     1      98.123 121.114 185.695  0.00  0.00    +0.000 C 
ATOM     22  C   UNL     1      97.803 120.507 185.236  0.00  0.00    +0.000 C 
ENDROOT
BRANCH  15  25
ATOM     23  O   UNL     1      94.883 125.253 188.775  0.00  0.00    +0.000 OA
ATOM     24  O   UNL     1      94.954 126.553 188.093  0.00  0.00    +0.000 OA
ATOM     25  C   UNL     1      94.776 124.462 187.706  0.00  0.00    +0.000 C 
ATOM     26  C   UNL     1      94.825 125.242 187.442  0.00  0.00    +0.000 C 
ATOM     27  C   UNL     1      94.812 124.468 188.529  0.00  0.00    +0.000 C 
ATOM     28  C   UNL     1      94.891 125.731 188.103  0.00  0.00    +0.000 C 
ENDBRANCH  15  25
BRANCH   7  30
ATOM     29  O   UNL     1      97.735 122.684 186.729  0.00  0.00    +0.000 OA
ATOM     30  C   UNL     1      97.132 122.238 186.384  0.00  0.00    +0.000 C 
ENDBRANCH   7  30
BRANCH  22  31
ATOM     31  O   UNL     1      98.298 119.945 184.891  0.00  0.00    +0.000 OA
BRANCH  31  36
ATOM     32  O   UNL     1      98.670 120.685 183.728  0.00  0.00    +0.000 OA
ATOM     33  O   UNL     1      99.847 119.397 185.039  0.00  0.00    +0.000 OA
ATOM     34  O   UNL     1     100.995 119.864 183.948  0.00  0.00    +0.000 OA
ATOM     35  O   UNL     1     100.592 120.879 182.711  0.00  0.00    +0.000 OA
ATOM     36  C   UNL     1      98.872 120.178 184.347  0.00  0.00    +0.000 C 
ATOM     37  C   UNL     1      99.646 119.904 184.420  0.00  0.00    +0.000 C 
ATOM     38  C   UNL     1     100.220 120.138 183.875  0.00  0.00    +0.000 C 
ATOM     39  C   UNL     1      99.243 120.919 183.183  0.00  0.00    +0.000 C 
ATOM     40  C   UNL     1     100.018 120.645 183.256  0.00  0.00    +0.000 C 
ATOM     41  C   UNL     1      99.043 121.426 182.564  0.00  0.00    +0.000 C 
ENDBRANCH  31  36
ENDBRANCH  22  31
TORSDOF 4
ENDMDL
MODEL 16
REMARK VINA RESULT:     -10.7      1.671      2.663
REMARK  Name = 
REMARK  4 active torsions:
REMARK  status: ('A' for Active; 'I' for Inactive)
REMARK    1  A    between atoms: O_6  and  C_31
REMARK    2  A    between atoms: O_6  and  C_36
REMARK    3  A    between atoms: C_15  and  C_26
REMARK    4  A    between atoms: C_23  and  C_32
REMARK                            x       y       z     vdW  Elec       q    Type
REMARK                         _______ _______ _______ _____ _____    ______ ____
ROOT
ATOM      1  O   UNL     1     135.133 159.213 210.112  0.00  0.00    +0.000 OA
ATOM      2  O   UNL     1     132.719 158.507 209.683  0.00  0.00    +0.000 OA
ATOM      3  O   UNL     1     133.575 159.547 212.695  0.00  0.00    +0.000 OA
ATOM      4  O   UNL     1     132.798 159.316 212.544  0.00  0.00    +0.000 OA
ATOM      5  C   UNL     1     133.925 159.258 211.340  0.00  0.00    +0.000 C 
ATOM      6  C   UNL     1     134.488 159.228 210.738  0.00  0.00    +0.000 C 
ATOM      7  C   UNL     1     133.147 159.027 211.188  0.00  0.00    +0.000 C 
ATOM      8  C   UNL     1     135.266 159.459 210.889  0.00  0.00    +0.000 C 
ATOM      9  C   UNL     1     135.480 159.719 211.642  0.00  0.00    +0.000 C 
ATOM     10  C   UNL     1     132.933 158.767 210.435  0.00  0.00    +0.000 C 
ATOM     11  C   UNL     1     134.139 159.518 212.093  0.00  0.00    +0.000 C 
ATOM     12  C   UNL     1     134.274 158.968 209.985  0.00  0.00    +0.000 C 
ATOM     13  C   UNL     1     134.916 159.749 212.244  0.00  0.00    +0.000 C 
ATOM     14  C   UNL     1     132.584 159.056 211.791  0.00  0.00    +0.000 C 
ATOM     15  C   UNL     1     136.283 159.910 211.627  0.00  0.00    +0.000 C 
ATOM     16  C   UNL     1     135.936 159.489 210.409  0.00  0.00    +0.000 C 
ATOM     17  C   UNL     1     133.496 158.738 209.834  0.00  0.00    +0.000 C 
ATOM     18  C   UNL     1     132.155 158.536 210.284  0.00  0.00    +0.000 C 
ATOM     19  C   UNL     1     136.564 159.768 210.865  0.00  0.00    +0.000 C 
ATOM     20  C   UNL     1     135.774 159.990 212.363  0.00  0.00    +0.000 C 
ATOM     21  C   UNL     1     131.807 158.826 211.640  0.00  0.00    +0.000 C 
ATOM     22  C   UNL     1     131.592 158.565 210.887  0.00  0.00    +0.000 C 
ENDROOT
BRANCH  15  25
ATOM     23  O   UNL     1     137.246 161.005 213.186  0.00  0.00    +0.000 OA
ATOM     24  O   UNL     1     138.112 160.038 213.878  0.00  0.00    +0.000 OA
ATOM     25  C   UNL     1     136.725 160.194 212.263  0.00  0.00    +0.000 C 
ATOM     26  C   UNL     1     137.243 159.751 212.727  0.00  0.00    +0.000 C 
ATOM     27  C   UNL     1     136.727 160.968 212.546  0.00  0.00    +0.000 C 
ATOM     28  C   UNL     1     137.566 160.252 213.298  0.00  0.00    +0.000 C 
ENDBRANCH  15  25
BRANCH   7  30
ATOM     29  O   UNL     1     133.243 159.473 212.737  0.00  0.00    +0.000 OA
ATOM     30  C   UNL     1     133.361 159.287 211.941  0.00  0.00    +0.000 C 
ENDBRANCH   7  30
BRANCH  22  31
ATOM     31  O   UNL     1     130.814 158.335 210.736  0.00  0.00    +0.000 OA
BRANCH  31  36
ATOM     32  O   UNL     1     130.934 156.937 211.005  0.00  0.00    +0.000 OA
ATOM     33  O   UNL     1     129.380 158.370 211.551  0.00  0.00    +0.000 OA
ATOM     34  O   UNL     1     128.782 156.988 212.228  0.00  0.00    +0.000 OA
ATOM     35  O   UNL     1     129.619 155.573 212.090  0.00  0.00    +0.000 OA
ATOM     36  C   UNL     1     130.515 157.645 211.074  0.00  0.00    +0.000 C 
ATOM     37  C   UNL     1     129.798 157.662 211.482  0.00  0.00    +0.000 C 
ATOM     38  C   UNL     1     129.499 156.971 211.820  0.00  0.00    +0.000 C 
ATOM     39  C   UNL     1     130.635 156.246 211.343  0.00  0.00    +0.000 C 
ATOM     40  C   UNL     1     129.918 156.263 211.751  0.00  0.00    +0.000 C 
ATOM     41  C   UNL     1     131.053 155.539 211.275  0.00  0.00    +0.000 C 
ENDBRANCH  31  36
ENDBRANCH  22  31
TORSDOF 4
ENDMDL
MODEL 17
REMARK VINA RESULT:     -10.7     52.943     55.564
REMARK  Name = 
REMARK  4 active torsions:
REMARK  status: ('A' for Active; 'I' for Inactive)
REMARK    1  A    between atoms: O_6  and  C_31
REMARK    2  A    between atoms: O_6  and  C_36
REMARK    3  A    between atoms: C_15  and  C_26
REMARK    4  A    between atoms: C_23  and  C_32
REMARK                            x       y       z     vdW  Elec       q    Type
REMARK                         _______ _______ _______ _____ _____    ______ ____
ROOT
ATOM      1  O   UNL     1     109.619 116.532 184.479  0.00  0.00    +0.000 OA
ATOM      2  O   UNL     1     110.823 118.620 185.319  0.00  0.00    +0.000 OA
ATOM      3  O   UNL     1     109.456 118.653 182.316  0.00  0.00    +0.000 OA
ATOM      4  O   UNL     1     109.848 119.322 182.598  0.00  0.00    +0.000 OA
ATOM      5  C   UNL     1     109.747 117.967 183.535  0.00  0.00    +0.000 C 
ATOM      6  C   UNL     1     109.697 117.290 184.003  0.00  0.00    +0.000 C 
ATOM      7  C   UNL     1     110.140 118.637 183.818  0.00  0.00    +0.000 C 
ATOM      8  C   UNL     1     109.305 116.621 183.721  0.00  0.00    +0.000 C 
ATOM      9  C   UNL     1     108.964 116.630 182.970  0.00  0.00    +0.000 C 
ATOM     10  C   UNL     1     110.481 118.628 184.569  0.00  0.00    +0.000 C 
ATOM     11  C   UNL     1     109.406 117.976 182.784  0.00  0.00    +0.000 C 
ATOM     12  C   UNL     1     110.039 117.282 184.754  0.00  0.00    +0.000 C 
ATOM     13  C   UNL     1     109.014 117.307 182.502  0.00  0.00    +0.000 C 
ATOM     14  C   UNL     1     110.189 119.313 183.349  0.00  0.00    +0.000 C 
ATOM     15  C   UNL     1     108.615 115.893 182.840  0.00  0.00    +0.000 C 
ATOM     16  C   UNL     1     109.168 115.880 184.055  0.00  0.00    +0.000 C 
ATOM     17  C   UNL     1     110.431 117.951 185.037  0.00  0.00    +0.000 C 
ATOM     18  C   UNL     1     110.873 119.297 184.851  0.00  0.00    +0.000 C 
ATOM     19  C   UNL     1     108.742 115.430 183.511  0.00  0.00    +0.000 C 
ATOM     20  C   UNL     1     108.597 116.557 182.235  0.00  0.00    +0.000 C 
ATOM     21  C   UNL     1     110.581 119.982 183.631  0.00  0.00    +0.000 C 
ATOM     22  C   UNL     1     110.923 119.974 184.382  0.00  0.00    +0.000 C 
ENDROOT
BRANCH  15  25
ATOM     23  O   UNL     1     107.249 115.486 181.252  0.00  0.00    +0.000 OA
ATOM     24  O   UNL     1     108.011 114.723 180.253  0.00  0.00    +0.000 OA
ATOM     25  C   UNL     1     108.211 115.661 182.159  0.00  0.00    +0.000 C 
ATOM     26  C   UNL     1     108.529 115.232 181.531  0.00  0.00    +0.000 C 
ATOM     27  C   UNL     1     107.420 115.819 181.987  0.00  0.00    +0.000 C 
ATOM     28  C   UNL     1     107.934 115.123 180.969  0.00  0.00    +0.000 C 
ENDBRANCH  15  25
BRANCH   7  30
ATOM     29  O   UNL     1     109.576 118.974 182.344  0.00  0.00    +0.000 OA
ATOM     30  C   UNL     1     109.798 118.645 183.067  0.00  0.00    +0.000 C 
ENDBRANCH   7  30
BRANCH  22  31
ATOM     31  O   UNL     1     111.315 120.643 184.665  0.00  0.00    +0.000 OA
BRANCH  31  36
ATOM     32  O   UNL     1     110.205 121.337 185.236  0.00  0.00    +0.000 OA
ATOM     33  O   UNL     1     111.868 122.057 184.020  0.00  0.00    +0.000 OA
ATOM     34  O   UNL     1     111.033 123.460 184.270  0.00  0.00    +0.000 OA
ATOM     35  O   UNL     1     109.646 123.446 185.164  0.00  0.00    +0.000 OA
ATOM     36  C   UNL     1     110.898 121.344 184.789  0.00  0.00    +0.000 C 
ATOM     37  C   UNL     1     111.174 122.051 184.467  0.00  0.00    +0.000 C 
ATOM     38  C   UNL     1     110.757 122.752 184.592  0.00  0.00    +0.000 C 
ATOM     39  C   UNL     1     109.788 122.038 185.361  0.00  0.00    +0.000 C 
ATOM     40  C   UNL     1     110.064 122.745 185.039  0.00  0.00    +0.000 C 
ATOM     41  C   UNL     1     109.094 122.031 185.808  0.00  0.00    +0.000 C 
ENDBRANCH  31  36
ENDBRANCH  22  31
TORSDOF 4
ENDMDL
MODEL 18
REMARK VINA RESULT:     -10.6    116.499    118.331
REMARK  Name = 
REMARK  4 active torsions:
REMARK  status: ('A' for Active; 'I' for Inactive)
REMARK    1  A    between atoms: O_6  and  C_31
REMARK    2  A    between atoms: O_6  and  C_36
REMARK    3  A    between atoms: C_15  and  C_26
REMARK    4  A    between atoms: C_23  and  C_32
REMARK                            x       y       z     vdW  Elec       q    Type
REMARK                         _______ _______ _______ _____ _____    ______ ____
ROOT
ATOM      1  O   UNL     1      94.923 131.870 102.066  0.00  0.00    +0.000 OA
ATOM      2  O   UNL     1      94.538 134.122 103.203  0.00  0.00    +0.000 OA
ATOM      3  O   UNL     1      93.374 131.385 104.630  0.00  0.00    +0.000 OA
ATOM      4  O   UNL     1      93.256 132.118 104.988  0.00  0.00    +0.000 OA
ATOM      5  C   UNL     1      94.074 132.019 103.558  0.00  0.00    +0.000 C 
ATOM      6  C   UNL     1      94.483 131.970 102.843  0.00  0.00    +0.000 C 
ATOM      7  C   UNL     1      93.956 132.754 103.916  0.00  0.00    +0.000 C 
ATOM      8  C   UNL     1      94.601 131.236 102.485  0.00  0.00    +0.000 C 
ATOM      9  C   UNL     1      94.310 130.552 102.842  0.00  0.00    +0.000 C 
ATOM     10  C   UNL     1      94.247 133.438 103.559  0.00  0.00    +0.000 C 
ATOM     11  C   UNL     1      93.783 131.335 103.915  0.00  0.00    +0.000 C 
ATOM     12  C   UNL     1      94.774 132.655 102.487  0.00  0.00    +0.000 C 
ATOM     13  C   UNL     1      93.901 130.601 103.557  0.00  0.00    +0.000 C 
ATOM     14  C   UNL     1      93.547 132.803 104.631  0.00  0.00    +0.000 C 
ATOM     15  C   UNL     1      94.510 129.910 102.363  0.00  0.00    +0.000 C 
ATOM     16  C   UNL     1      94.981 131.017 101.786  0.00  0.00    +0.000 C 
ATOM     17  C   UNL     1      94.656 133.388 102.845  0.00  0.00    +0.000 C 
ATOM     18  C   UNL     1      94.129 134.172 103.917  0.00  0.00    +0.000 C 
ATOM     19  C   UNL     1      94.924 130.198 101.711  0.00  0.00    +0.000 C 
ATOM     20  C   UNL     1      94.053 129.824 103.132  0.00  0.00    +0.000 C 
ATOM     21  C   UNL     1      93.429 133.536 104.988  0.00  0.00    +0.000 C 
ATOM     22  C   UNL     1      93.720 134.221 104.632  0.00  0.00    +0.000 C 
ENDROOT
BRANCH  15  25
ATOM     23  O   UNL     1      94.374 127.872 102.986  0.00  0.00    +0.000 OA
ATOM     24  O   UNL     1      93.178 127.330 102.325  0.00  0.00    +0.000 OA
ATOM     25  C   UNL     1      94.327 129.119 102.512  0.00  0.00    +0.000 C 
ATOM     26  C   UNL     1      93.686 128.704 102.201  0.00  0.00    +0.000 C 
ATOM     27  C   UNL     1      94.753 128.606 102.997  0.00  0.00    +0.000 C 
ATOM     28  C   UNL     1      93.714 127.933 102.494  0.00  0.00    +0.000 C 
ENDBRANCH  15  25
BRANCH   7  30
ATOM     29  O   UNL     1      93.262 131.629 104.843  0.00  0.00    +0.000 OA
ATOM     30  C   UNL     1      93.665 132.069 104.273  0.00  0.00    +0.000 C 
ENDBRANCH   7  30
BRANCH  22  31
ATOM     31  O   UNL     1      93.602 134.955 104.990  0.00  0.00    +0.000 OA
BRANCH  31  36
ATOM     32  O   UNL     1      92.252 135.056 104.533  0.00  0.00    +0.000 OA
ATOM     33  O   UNL     1      93.700 136.600 105.064  0.00  0.00    +0.000 OA
ATOM     34  O   UNL     1      92.398 137.524 104.644  0.00  0.00    +0.000 OA
ATOM     35  O   UNL     1      90.999 136.802 104.149  0.00  0.00    +0.000 OA
ATOM     36  C   UNL     1      92.952 135.417 104.780  0.00  0.00    +0.000 C 
ATOM     37  C   UNL     1      93.001 136.240 104.817  0.00  0.00    +0.000 C 
ATOM     38  C   UNL     1      92.350 136.702 104.607  0.00  0.00    +0.000 C 
ATOM     39  C   UNL     1      91.602 135.517 104.322  0.00  0.00    +0.000 C 
ATOM     40  C   UNL     1      91.650 136.340 104.359  0.00  0.00    +0.000 C 
ATOM     41  C   UNL     1      90.902 135.157 104.075  0.00  0.00    +0.000 C 
ENDBRANCH  31  36
ENDBRANCH  22  31
TORSDOF 4
ENDMDL
MODEL 19
REMARK VINA RESULT:     -10.5     91.539     94.072
REMARK  Name = 
REMARK  4 active torsions:
REMARK  status: ('A' for Active; 'I' for Inactive)
REMARK    1  A    between atoms: O_6  and  C_31
REMARK    2  A    between atoms: O_6  and  C_36
REMARK    3  A    between atoms: C_15  and  C_26
REMARK    4  A    between atoms: C_23  and  C_32
REMARK                            x       y       z     vdW  Elec       q    Type
REMARK                         _______ _______ _______ _____ _____    ______ ____
ROOT
ATOM      1  O   UNL     1     122.807 137.644 121.845  0.00  0.00    +0.000 OA
ATOM      2  O   UNL     1     124.208 136.078 120.396  0.00  0.00    +0.000 OA
ATOM      3  O   UNL     1     120.989 135.462 120.776  0.00  0.00    +0.000 OA
ATOM      4  O   UNL     1     121.452 134.963 120.311  0.00  0.00    +0.000 OA
ATOM      5  C   UNL     1     122.135 136.269 121.052  0.00  0.00    +0.000 C 
ATOM      6  C   UNL     1     122.477 136.922 121.423  0.00  0.00    +0.000 C 
ATOM      7  C   UNL     1     122.599 135.770 120.586  0.00  0.00    +0.000 C 
ATOM      8  C   UNL     1     122.013 137.421 121.889  0.00  0.00    +0.000 C 
ATOM      9  C   UNL     1     121.209 137.267 121.984  0.00  0.00    +0.000 C 
ATOM     10  C   UNL     1     123.404 135.924 120.491  0.00  0.00    +0.000 C 
ATOM     11  C   UNL     1     121.330 136.115 121.147  0.00  0.00    +0.000 C 
ATOM     12  C   UNL     1     123.282 137.076 121.328  0.00  0.00    +0.000 C 
ATOM     13  C   UNL     1     120.867 136.614 121.613  0.00  0.00    +0.000 C 
ATOM     14  C   UNL     1     122.257 135.118 120.216  0.00  0.00    +0.000 C 
ATOM     15  C   UNL     1     120.893 137.852 122.473  0.00  0.00    +0.000 C 
ATOM     16  C   UNL     1     122.195 138.101 122.319  0.00  0.00    +0.000 C 
ATOM     17  C   UNL     1     123.745 136.577 120.862  0.00  0.00    +0.000 C 
ATOM     18  C   UNL     1     123.867 135.426 120.025  0.00  0.00    +0.000 C 
ATOM     19  C   UNL     1     121.503 138.367 122.680  0.00  0.00    +0.000 C 
ATOM     20  C   UNL     1     120.401 137.183 122.129  0.00  0.00    +0.000 C 
ATOM     21  C   UNL     1     122.720 134.619 119.750  0.00  0.00    +0.000 C 
ATOM     22  C   UNL     1     123.525 134.772 119.654  0.00  0.00    +0.000 C 
ENDROOT
BRANCH  15  25
ATOM     23  O   UNL     1     118.791 138.142 122.709  0.00  0.00    +0.000 OA
ATOM     24  O   UNL     1     118.482 137.737 124.088  0.00  0.00    +0.000 OA
ATOM     25  C   UNL     1     120.105 137.910 122.713  0.00  0.00    +0.000 C 
ATOM     26  C   UNL     1     119.810 137.714 123.457  0.00  0.00    +0.000 C 
ATOM     27  C   UNL     1     119.476 138.175 122.250  0.00  0.00    +0.000 C 
ATOM     28  C   UNL     1     118.997 137.857 123.455  0.00  0.00    +0.000 C 
ENDBRANCH  15  25
BRANCH   7  30
ATOM     29  O   UNL     1     121.088 135.203 120.574  0.00  0.00    +0.000 OA
ATOM     30  C   UNL     1     121.794 135.616 120.682  0.00  0.00    +0.000 C 
ENDBRANCH   7  30
BRANCH  22  31
ATOM     31  O   UNL     1     123.988 134.273 119.188  0.00  0.00    +0.000 OA
BRANCH  31  36
ATOM     32  O   UNL     1     123.992 133.162 120.086  0.00  0.00    +0.000 OA
ATOM     33  O   UNL     1     125.548 133.939 118.767  0.00  0.00    +0.000 OA
ATOM     34  O   UNL     1     126.332 132.660 119.454  0.00  0.00    +0.000 OA
ATOM     35  O   UNL     1     125.556 131.715 120.563  0.00  0.00    +0.000 OA
ATOM     36  C   UNL     1     124.381 133.634 119.531  0.00  0.00    +0.000 C 
ATOM     37  C   UNL     1     125.160 133.467 119.321  0.00  0.00    +0.000 C 
ATOM     38  C   UNL     1     125.552 132.827 119.664  0.00  0.00    +0.000 C 
ATOM     39  C   UNL     1     124.384 132.523 120.429  0.00  0.00    +0.000 C 
ATOM     40  C   UNL     1     125.164 132.355 120.219  0.00  0.00    +0.000 C 
ATOM     41  C   UNL     1     123.996 132.050 120.984  0.00  0.00    +0.000 C 
ENDBRANCH  31  36
ENDBRANCH  22  31
TORSDOF 4
ENDMDL
MODEL 20
REMARK VINA RESULT:     -10.4      2.251      4.370
REMARK  Name = 
REMARK  4 active torsions:
REMARK  status: ('A' for Active; 'I' for Inactive)
REMARK    1  A    between atoms: O_6  and  C_31
REMARK    2  A    between atoms: O_6  and  C_36
REMARK    3  A    between atoms: C_15  and  C_26
REMARK    4  A    between atoms: C_23  and  C_32
REMARK                            x       y       z     vdW  Elec       q    Type
REMARK                         _______ _______ _______ _____ _____    ______ ____
ROOT
ATOM      1  O   UNL     1     132.948 160.163 209.103  0.00  0.00    +0.000 OA
ATOM      2  O   UNL     1     130.473 159.953 209.689  0.00  0.00    +0.000 OA
ATOM      3  O   UNL     1     132.568 157.618 210.712  0.00  0.00    +0.000 OA
ATOM      4  O   UNL     1     131.765 157.561 210.895  0.00  0.00    +0.000 OA
ATOM      5  C   UNL     1     132.323 158.842 210.017  0.00  0.00    +0.000 C 
ATOM      6  C   UNL     1     132.602 159.483 209.578  0.00  0.00    +0.000 C 
ATOM      7  C   UNL     1     131.520 158.786 210.200  0.00  0.00    +0.000 C 
ATOM      8  C   UNL     1     133.404 159.540 209.395  0.00  0.00    +0.000 C 
ATOM      9  C   UNL     1     133.927 158.956 209.650  0.00  0.00    +0.000 C 
ATOM     10  C   UNL     1     130.996 159.370 209.945  0.00  0.00    +0.000 C 
ATOM     11  C   UNL     1     132.847 158.258 210.273  0.00  0.00    +0.000 C 
ATOM     12  C   UNL     1     132.077 160.067 209.323  0.00  0.00    +0.000 C 
ATOM     13  C   UNL     1     133.649 158.315 210.090  0.00  0.00    +0.000 C 
ATOM     14  C   UNL     1     131.242 158.145 210.639  0.00  0.00    +0.000 C 
ATOM     15  C   UNL     1     134.683 159.159 209.388  0.00  0.00    +0.000 C 
ATOM     16  C   UNL     1     133.835 160.103 208.974  0.00  0.00    +0.000 C 
ATOM     17  C   UNL     1     131.275 160.010 209.506  0.00  0.00    +0.000 C 
ATOM     18  C   UNL     1     130.194 159.313 210.128  0.00  0.00    +0.000 C 
ATOM     19  C   UNL     1     134.626 159.867 208.970  0.00  0.00    +0.000 C 
ATOM     20  C   UNL     1     134.514 158.418 209.867  0.00  0.00    +0.000 C 
ATOM     21  C   UNL     1     130.440 158.088 210.823  0.00  0.00    +0.000 C 
ATOM     22  C   UNL     1     129.915 158.672 210.567  0.00  0.00    +0.000 C 
ENDROOT
BRANCH  15  25
ATOM     23  O   UNL     1     136.366 157.845 209.382  0.00  0.00    +0.000 OA
ATOM     24  O   UNL     1     137.149 158.192 210.578  0.00  0.00    +0.000 OA
ATOM     25  C   UNL     1     135.374 158.727 209.520  0.00  0.00    +0.000 C 
ATOM     26  C   UNL     1     135.894 158.828 210.152  0.00  0.00    +0.000 C 
ATOM     27  C   UNL     1     135.665 158.120 209.044  0.00  0.00    +0.000 C 
ATOM     28  C   UNL     1     136.508 158.283 210.068  0.00  0.00    +0.000 C 
ENDBRANCH  15  25
BRANCH   7  30
ATOM     29  O   UNL     1     132.267 157.501 210.830  0.00  0.00    +0.000 OA
ATOM     30  C   UNL     1     132.044 158.202 210.456  0.00  0.00    +0.000 C 
ENDBRANCH   7  30
BRANCH  22  31
ATOM     31  O   UNL     1     129.113 158.615 210.750  0.00  0.00    +0.000 OA
BRANCH  31  36
ATOM     32  O   UNL     1     129.150 159.198 212.054  0.00  0.00    +0.000 OA
ATOM     33  O   UNL     1     128.060 157.466 211.293  0.00  0.00    +0.000 OA
ATOM     34  O   UNL     1     127.571 157.475 212.869  0.00  0.00    +0.000 OA
ATOM     35  O   UNL     1     128.134 158.633 213.902  0.00  0.00    +0.000 OA
ATOM     36  C   UNL     1     128.868 158.619 211.538  0.00  0.00    +0.000 C 
ATOM     37  C   UNL     1     128.342 158.045 211.810  0.00  0.00    +0.000 C 
ATOM     38  C   UNL     1     128.097 158.049 212.598  0.00  0.00    +0.000 C 
ATOM     39  C   UNL     1     128.905 159.203 212.842  0.00  0.00    +0.000 C 
ATOM     40  C   UNL     1     128.379 158.629 213.114  0.00  0.00    +0.000 C 
ATOM     41  C   UNL     1     129.186 159.781 213.358  0.00  0.00    +0.000 C 
ENDBRANCH  31  36
ENDBRANCH  22  31
TORSDOF 4
ENDMDL
