REMARK  Name = 
REMARK  9 active torsions:
REMARK  status: ('A' for Active; 'I' for Inactive)
REMARK    1  A    between atoms: C_8  and  C_16
REMARK    2  A    between atoms: N_10  and  CA_14
REMARK    3  A    between atoms: C_11  and  C_17
REMARK    4  A    between atoms: C_12  and  CA_14
REMARK    5  A    between atoms: N_13  and  C_17
REMARK    6  A    between atoms: N_13  and  C_18
REMARK    7  A    between atoms: CA_14  and  CB_30
REMARK    8  A    between atoms: CD_15  and  CG_31
REMARK    9  A    between atoms: CB_30  and  CG_31
REMARK                            x       y       z     vdW  Elec       q    Type
REMARK                         _______ _______ _______ _____ _____    ______ ____
ROOT
ATOM      1  C   UNK A   0       4.929  -7.991   0.000  0.00  0.00    +0.000 A 
ATOM      2  C   UNK A   0       6.353  -7.216   0.000  0.00  0.00    +0.000 A 
ATOM      3  C   UNK A   0       5.631  -8.410   0.000  0.00  0.00    +0.000 A 
ATOM      4  C   UNK A   0       4.929  -7.181   0.000  0.00  0.00    +0.000 A 
ATOM      5  C   UNK A   0       6.353  -8.020   0.000  0.00  0.00    +0.000 A 
ATOM      6  C   UNK A   0       5.665  -6.777   0.000  0.00  0.00    +0.000 A 
ENDROOT
BRANCH   1   7
ATOM      7  C   UNK A   0       4.203  -8.400   0.000  0.00  0.00    +0.000 C 
ATOM      8  N   GLU A   1       3.496  -7.971   0.000  0.00  0.00    +0.000 NA
ATOM      9  O   UNK A   0       4.188  -9.214   0.000  0.00  0.00    +0.000 OA
BRANCH   8  10
ATOM     10  CA  GLU A   1       2.769  -8.371   0.000  0.00  0.00    +0.000 C 
BRANCH  10  11
ATOM     11  C   GLU A   1       2.755  -9.190   0.000  0.00  0.00    +0.000 C 
ATOM     12  O   GLU A   1       3.457  -9.614   0.000  0.00  0.00    +0.000 OA
ATOM     13  OXT GLU A   1       2.038  -9.595   0.000  0.00  0.00    +0.000 OA
ENDBRANCH  10  11
BRANCH  10  14
ATOM     14  CB  GLU A   1       2.067  -7.932   0.000  0.00  0.00    +0.000 C 
BRANCH  14  15
ATOM     15  CG  GLU A   1       1.346  -8.337   0.000  0.00  0.00    +0.000 C 
BRANCH  15  16
ATOM     16  CD  GLU A   1       0.634  -7.913   0.000  0.00  0.00    +0.000 C 
ATOM     17  OE1 GLU A   1      -0.258  -8.351   0.000  0.00  0.00    +0.000 OA
ATOM     18  OE2 GLU A   1       0.648  -7.084   0.000  0.00  0.00    +0.000 OA
ENDBRANCH  15  16
ENDBRANCH  14  15
ENDBRANCH  10  14
ENDBRANCH   8  10
ENDBRANCH   1   7
BRANCH   2  19
ATOM     19  N   UNK A   0       7.084  -6.806   0.000  0.00  0.00    +0.000 N 
ATOM     20  C   UNK A   0       7.099  -5.972   0.000  0.00  0.00    +0.000 C 
BRANCH  19  21
ATOM     21  C   UNK A   0       7.796  -7.240   0.000  0.00  0.00    +0.000 C 
BRANCH  21  30
ATOM     22  N   UNK A   0      11.384  -6.894   0.000  0.00  0.00    +0.000 NA
ATOM     23  N   UNK A   0      10.697  -5.631   0.000  0.00  0.00    +0.000 NA
ATOM     24  C   UNK A   0       9.951  -6.860   0.000  0.00  0.00    +0.000 A 
ATOM     25  C   UNK A   0       9.960  -6.041   0.000  0.00  0.00    +0.000 A 
ATOM     26  C   UNK A   0      10.653  -7.289   0.000  0.00  0.00    +0.000 A 
ATOM     27  C   UNK A   0      11.394  -6.045   0.000  0.00  0.00    +0.000 A 
ATOM     28  N   UNK A   0       9.229  -7.255   0.000  0.00  0.00    +0.000 NA
ATOM     29  N   UNK A   0       9.263  -5.616   0.000  0.00  0.00    +0.000 NA
ATOM     30  C   UNK A   0       8.527  -6.830   0.000  0.00  0.00    +0.000 A 
ATOM     31  C   UNK A   0       8.527  -6.002   0.000  0.00  0.00    +0.000 A 
ATOM     32  N   UNK A   0      10.653  -8.108   0.000  0.00  0.00    +0.000 NA
ATOM     33  N   UNK A   0      12.125  -5.651   0.000  0.00  0.00    +0.000 NA
ENDBRANCH  21  30
ENDBRANCH  19  21
ENDBRANCH   2  19
TORSDOF 9
