REMARK  Name = 
REMARK  3 active torsions:
REMARK  status: ('A' for Active; 'I' for Inactive)
REMARK    1  A    between atoms: P_1  and  N_3
REMARK    2  A    between atoms: N_5  and  C_9
REMARK    3  A    between atoms: C_6  and  C_9
REMARK                            x       y       z     vdW  Elec       q    Type
REMARK                         _______ _______ _______ _____ _____    ______ ____
ROOT
ATOM      1  C   UNL     1       5.217  -6.067   0.000  0.00  0.00    +0.000 C 
ATOM      2  N   UNL     1       5.929  -6.479   0.000  0.00  0.00    +0.000 NA
ATOM      3  N   UNL     1       5.217  -5.242   0.000  0.00  0.00    +0.000 NA
ATOM      4  N   UNL     1       4.504  -6.479   0.000  0.00  0.00    +0.000 N 
ATOM      5  C   UNL     1       4.504  -7.304   0.000  0.00  0.00    +0.000 C 
ENDROOT
BRANCH   2   6
ATOM      6  P   UNL     1       6.642  -6.067   0.000  0.00  0.00    +0.000 P 
ATOM      7  O   UNL     1       6.854  -6.867   0.000  0.00  0.00    +0.000 OA
ATOM      8  O   UNL     1       7.792  -5.804   0.000  0.00  0.00    +0.000 OA
ATOM      9  O   UNL     1       6.642  -5.242   0.000  0.00  0.00    +0.000 OA
ENDBRANCH   2   6
BRANCH   4  10
ATOM     10  C   UNL     1       3.792  -6.067   0.000  0.00  0.00    +0.000 C 
BRANCH  10  11
ATOM     11  C   UNL     1       3.079  -6.479   0.000  0.00  0.00    +0.000 C 
ATOM     12  O   UNL     1       3.079  -7.304   0.000  0.00  0.00    +0.000 OA
ATOM     13  O   UNL     1       2.354  -6.067   0.000  0.00  0.00    +0.000 OA
ENDBRANCH  10  11
ENDBRANCH   4  10
TORSDOF 3
