REMARK  Name = 
REMARK  7 active torsions:
REMARK  status: ('A' for Active; 'I' for Inactive)
REMARK    1  A    between atoms: C_1  and  C_3
REMARK    2  A    between atoms: C_2  and  C_3
REMARK    3  A    between atoms: C_2  and  O_11
REMARK    4  A    between atoms: C_3  and  C_10
REMARK    5  A    between atoms: N_5  and  C_12
REMARK    6  A    between atoms: O_11  and  C_13
REMARK    7  A    between atoms: C_12  and  C_13
REMARK                            x       y       z     vdW  Elec       q    Type
REMARK                         _______ _______ _______ _____ _____    ______ ____
ROOT
ATOM      1  C   UNL     1       0.812  -2.179   0.000  0.00  0.00    +0.000 C 
ATOM      2  O   UNL     1       0.804  -1.467   0.000  0.00  0.00    +0.000 OA
ENDROOT
BRANCH   1   3
ATOM      3  C   UNL     1       0.204  -2.550   0.000  0.00  0.00    +0.000 C 
BRANCH   3   4
ATOM      4  C   UNL     1      -0.421  -2.200   0.000  0.00  0.00    +0.000 C 
ATOM      5  C   UNL     1      -1.033  -2.562   0.000  0.00  0.00    +0.000 C 
ATOM      6  C   UNL     1      -0.421  -1.492   0.000  0.00  0.00    +0.000 C 
ATOM      7  C   UNL     1      -1.646  -2.212   0.000  0.00  0.00    +0.000 C 
ATOM      8  C   UNL     1      -1.038  -1.142   0.000  0.00  0.00    +0.000 C 
ATOM      9  C   UNL     1      -1.650  -1.504   0.000  0.00  0.00    +0.000 C 
ENDBRANCH   3   4
BRANCH   3  10
ATOM     10  C   UNL     1       0.217  -3.263   0.000  0.00  0.00    +0.000 A 
ATOM     11  S   UNL     1       0.467  -4.379   0.000  0.00  0.00    +0.000 S 
ATOM     12  C   UNL     1       0.754  -3.729   0.000  0.00  0.00    +0.000 A 
ATOM     13  C   UNL     1      -0.388  -3.629   0.000  0.00  0.00    +0.000 A 
ATOM     14  C   UNL     1      -0.233  -4.317   0.000  0.00  0.00    +0.000 A 
ENDBRANCH   3  10
ENDBRANCH   1   3
BRANCH   1  15
ATOM     15  O   UNL     1       1.429  -2.525   0.000  0.00  0.00    +0.000 OA
BRANCH  15  16
ATOM     16  C   UNL     1       2.038  -2.167   0.000  0.00  0.00    +0.000 C 
BRANCH  16  17
ATOM     17  C   UNL     1       2.650  -2.504   0.000  0.00  0.00    +0.000 C 
BRANCH  17  18
ATOM     18  N   UNL     1       3.267  -2.150   0.000  0.00  0.00    +0.000 NA
ATOM     19  C   UNL     1       3.263  -1.442   0.000  0.00  0.00    +0.000 C 
ATOM     20  C   UNL     1       3.829  -2.592   0.000  0.00  0.00    +0.000 C 
ATOM     21  C   UNL     1       3.817  -0.992   0.000  0.00  0.00    +0.000 C 
ATOM     22  C   UNL     1       4.517  -2.425   0.000  0.00  0.00    +0.000 C 
ATOM     23  C   UNL     1       4.817  -1.779   0.000  0.00  0.00    +0.000 C 
ATOM     24  C   UNL     1       4.504  -1.154   0.000  0.00  0.00    +0.000 C 
ENDBRANCH  17  18
ENDBRANCH  16  17
ENDBRANCH  15  16
ENDBRANCH   1  15
TORSDOF 7
