REMARK  Name = 
REMARK  0 active torsions:
REMARK  status: ('A' for Active; 'I' for Inactive)
REMARK                            x       y       z     vdW  Elec       q    Type
REMARK                         _______ _______ _______ _____ _____    ______ ____
ROOT
ATOM      1  C   UNL     1      -1.200  -0.579   0.000  0.00  0.00    +0.000 C 
ATOM      2  N   UNL     1       0.062  -1.279   0.000  0.00  0.00    +0.000 NA
ATOM      3  C   UNL     1       1.300  -0.542   0.000  0.00  0.00    +0.000 C 
ATOM      4  N   UNL     1      -2.446  -1.317   0.000  0.00  0.00    +0.000 NA
ATOM      5  N   UNL     1      -1.200   0.846   0.000  0.00  0.00    +0.000 N 
ATOM      6  N   UNL     1       2.525  -1.225   0.000  0.00  0.00    +0.000 NA
ATOM      7  N   UNL     1       1.300   0.871   0.000  0.00  0.00    +0.000 NA
ATOM      8  C   UNL     1       0.025   1.583   0.000  0.00  0.00    +0.000 C 
ATOM      9  C   UNL     1      -2.483   1.525   0.000  0.00  0.00    +0.000 C 
ENDROOT
TORSDOF 0
