
     RDKit          2D

 30 28  0  0  0  0  0  0  0  0999 V2000
    0.7071   -7.7196    0.0000 O   0  0  0  0  0  0  0  0  0  0  0  0
   -3.5652   -9.5170    0.0000 C   0  0  0  0  0  0  0  0  0  0  0  0
   -4.2797   -9.9295    0.0000 C   0  0  0  0  0  0  0  0  0  0  0  0
   -4.2797  -10.7545    0.0000 C   0  0  0  0  0  0  0  0  0  0  0  0
   -3.5652  -11.1670    0.0000 C   0  0  0  0  0  0  0  0  0  0  0  0
   -2.8507  -10.7545    0.0000 C   0  0  0  0  0  0  0  0  0  0  0  0
   -2.8507   -9.9295    0.0000 C   0  0  0  0  0  0  0  0  0  0  0  0
   -4.9941  -11.1670    0.0000 Cl  0  0  0  0  0  0  0  0  0  0  0  0
   -2.1362   -9.5170    0.0000 O   0  0  0  0  0  0  0  0  0  0  0  0
   -1.4217   -9.9295    0.0000 C   0  0  0  0  0  0  0  0  0  0  0  0
   -0.7073   -9.5170    0.0000 C   0  0  0  0  0  0  0  0  0  0  0  0
    0.0072   -9.9295    0.0000 O   0  0  0  0  0  0  0  0  0  0  0  0
   -0.7073   -8.6920    0.0000 O   0  0  0  0  0  0  0  0  0  0  0  0
   -2.0051  -10.5128    0.0000 C   0  0  0  0  0  0  0  0  0  0  0  0
   -0.8384  -10.5128    0.0000 C   0  0  0  0  0  0  0  0  0  0  0  0
    1.4361   -9.9295    0.0000 O   0  0  0  0  0  0  0  0  0  0  0  0
    2.1506   -9.5170    0.0000 C   0  0  0  0  0  0  0  0  0  0  0  0
    2.8651   -9.9295    0.0000 C   0  0  0  0  0  0  0  0  0  0  0  0
    2.1506   -8.6920    0.0000 O   0  0  0  0  0  0  0  0  0  0  0  0
    3.5796   -9.5170    0.0000 O   0  0  0  0  0  0  0  0  0  0  0  0
    4.2940   -9.9295    0.0000 C   0  0  0  0  0  0  0  0  0  0  0  0
    2.2817  -10.5128    0.0000 C   0  0  0  0  0  0  0  0  0  0  0  0
    3.4484  -10.5128    0.0000 C   0  0  0  0  0  0  0  0  0  0  0  0
    4.2940  -10.7545    0.0000 C   0  0  0  0  0  0  0  0  0  0  0  0
    5.0085  -11.1670    0.0000 C   0  0  0  0  0  0  0  0  0  0  0  0
    5.7230  -10.7545    0.0000 C   0  0  0  0  0  0  0  0  0  0  0  0
    5.7230   -9.9294    0.0000 C   0  0  0  0  0  0  0  0  0  0  0  0
    5.0085   -9.5169    0.0000 C   0  0  0  0  0  0  0  0  0  0  0  0
    6.4374  -11.1670    0.0000 Cl  0  0  0  0  0  0  0  0  0  0  0  0
    0.6777   -8.6920    0.0000 Al  0  0  0  0  0 15  0  0  0  0  0  0
  2  3  1  0
  2  7  2  0
  3  4  2  0
  4  5  1  0
  5  6  2  0
  6  7  1  0
  4  8  1  0
  7  9  1  0
  9 10  1  0
 10 11  1  0
 11 12  1  0
 11 13  2  0
 10 14  1  0
 10 15  1  0
 16 17  1  0
 17 18  1  0
 17 19  2  0
 18 20  1  0
 20 21  1  0
 18 22  1  0
 18 23  1  0
 21 24  1  0
 21 28  2  0
 24 25  2  0
 25 26  1  0
 26 27  2  0
 27 28  1  0
 26 29  1  0
M  CHG  4   1  -1  12  -1  16  -1  30   3
M  END


> <chembl_id>
CHEMBL3833336

> <chembl_pref_name>
ALUMINUM CLOFIBRATE
