REMARK  Name = 
REMARK  156 active torsions:
REMARK  status: ('A' for Active; 'I' for Inactive)
REMARK    1  A    between atoms: O_15  and  C_16
REMARK    2  A    between atoms: O_15  and  P_54
REMARK    3  A    between atoms: C_16  and  C_17
REMARK    4  A    between atoms: C_20  and  O_21
REMARK    5  A    between atoms: O_21  and  C_33
REMARK    6  A    between atoms: C_22  and  N_24
REMARK    7  A    between atoms: C_33  and  C_34
REMARK    8  A    between atoms: C_34  and  O_35
REMARK    9  A    between atoms: O_37  and  C_38
REMARK   10  A    between atoms: O_37  and  P_81
REMARK   11  A    between atoms: C_38  and  C_39
REMARK   12  A    between atoms: C_40  and  S_41
REMARK   13  A    between atoms: S_41  and  P_54
REMARK   14  A    between atoms: C_42  and  O_43
REMARK   15  A    between atoms: O_43  and  C_58
REMARK   16  A    between atoms: C_44  and  N_46
REMARK   17  A    between atoms: C_58  and  C_59
REMARK   18  A    between atoms: C_59  and  O_60
REMARK   19  A    between atoms: O_62  and  C_63
REMARK   20  A    between atoms: O_62  and  P_105
REMARK   21  A    between atoms: C_63  and  C_64
REMARK   22  A    between atoms: C_65  and  S_66
REMARK   23  A    between atoms: S_66  and  P_81
REMARK   24  A    between atoms: C_67  and  O_68
REMARK   25  A    between atoms: O_68  and  C_84
REMARK   26  A    between atoms: C_69  and  N_71
REMARK   27  A    between atoms: C_84  and  C_85
REMARK   28  A    between atoms: C_85  and  O_86
REMARK   29  A    between atoms: O_88  and  C_89
REMARK   30  A    between atoms: O_88  and  P_133
REMARK   31  A    between atoms: C_89  and  C_90
REMARK   32  A    between atoms: C_91  and  S_92
REMARK   33  A    between atoms: S_92  and  P_105
REMARK   34  A    between atoms: C_93  and  O_94
REMARK   35  A    between atoms: O_94  and  C_109
REMARK   36  A    between atoms: C_95  and  N_97
REMARK   37  A    between atoms: C_109  and  C_110
REMARK   38  A    between atoms: C_110  and  O_111
REMARK   39  A    between atoms: O_113  and  C_114
REMARK   40  A    between atoms: O_113  and  P_156
REMARK   41  A    between atoms: C_114  and  C_115
REMARK   42  A    between atoms: C_116  and  S_117
REMARK   43  A    between atoms: S_117  and  P_133
REMARK   44  A    between atoms: C_118  and  O_119
REMARK   45  A    between atoms: O_119  and  C_136
REMARK   46  A    between atoms: C_120  and  N_122
REMARK   47  A    between atoms: C_136  and  C_137
REMARK   48  A    between atoms: C_137  and  O_138
REMARK   49  A    between atoms: O_140  and  C_141
REMARK   50  A    between atoms: O_140  and  P_177
REMARK   51  A    between atoms: C_141  and  C_142
REMARK   52  A    between atoms: C_143  and  S_144
REMARK   53  A    between atoms: S_144  and  P_156
REMARK   54  A    between atoms: C_146  and  N_148
REMARK   55  A    between atoms: O_160  and  C_161
REMARK   56  A    between atoms: O_160  and  P_197
REMARK   57  A    between atoms: C_161  and  C_162
REMARK   58  A    between atoms: C_163  and  S_164
REMARK   59  A    between atoms: S_164  and  P_177
REMARK   60  A    between atoms: C_166  and  N_168
REMARK   61  A    between atoms: O_180  and  C_181
REMARK   62  A    between atoms: O_180  and  P_216
REMARK   63  A    between atoms: C_181  and  C_182
REMARK   64  A    between atoms: C_183  and  S_184
REMARK   65  A    between atoms: S_184  and  P_197
REMARK   66  A    between atoms: C_186  and  N_188
REMARK   67  A    between atoms: O_200  and  C_201
REMARK   68  A    between atoms: O_200  and  P_239
REMARK   69  A    between atoms: C_201  and  C_202
REMARK   70  A    between atoms: C_203  and  S_204
REMARK   71  A    between atoms: S_204  and  P_216
REMARK   72  A    between atoms: C_206  and  N_208
REMARK   73  A    between atoms: O_220  and  C_221
REMARK   74  A    between atoms: O_220  and  P_259
REMARK   75  A    between atoms: C_221  and  C_222
REMARK   76  A    between atoms: C_223  and  S_224
REMARK   77  A    between atoms: S_224  and  P_239
REMARK   78  A    between atoms: C_226  and  N_228
REMARK   79  A    between atoms: O_242  and  C_243
REMARK   80  A    between atoms: O_242  and  P_278
REMARK   81  A    between atoms: C_243  and  C_244
REMARK   82  A    between atoms: C_245  and  S_246
REMARK   83  A    between atoms: S_246  and  P_259
REMARK   84  A    between atoms: C_248  and  N_250
REMARK   85  A    between atoms: O_262  and  C_263
REMARK   86  A    between atoms: O_262  and  P_299
REMARK   87  A    between atoms: C_263  and  C_264
REMARK   88  A    between atoms: C_265  and  S_266
REMARK   89  A    between atoms: S_266  and  P_278
REMARK   90  A    between atoms: C_268  and  N_270
REMARK   91  A    between atoms: O_282  and  C_283
REMARK   92  A    between atoms: O_282  and  P_321
REMARK   93  A    between atoms: C_283  and  C_284
REMARK   94  A    between atoms: C_285  and  S_286
REMARK   95  A    between atoms: S_286  and  P_299
REMARK   96  A    between atoms: C_288  and  N_290
REMARK   97  A    between atoms: O_302  and  C_303
REMARK   98  A    between atoms: O_302  and  P_342
REMARK   99  A    between atoms: C_303  and  C_304
REMARK  100  A    between atoms: C_305  and  S_306
REMARK  101  A    between atoms: S_306  and  P_321
REMARK  102  A    between atoms: C_308  and  N_310
REMARK  103  A    between atoms: O_324  and  C_325
REMARK  104  A    between atoms: O_324  and  P_362
REMARK  105  A    between atoms: C_325  and  C_326
REMARK  106  A    between atoms: C_327  and  S_328
REMARK  107  A    between atoms: S_328  and  P_342
REMARK  108  A    between atoms: C_330  and  N_332
REMARK  109  A    between atoms: O_345  and  C_346
REMARK  110  A    between atoms: O_345  and  P_387
REMARK  111  A    between atoms: C_346  and  C_347
REMARK  112  A    between atoms: C_348  and  S_349
REMARK  113  A    between atoms: S_349  and  P_362
REMARK  114  A    between atoms: C_350  and  O_351
REMARK  115  A    between atoms: O_351  and  C_366
REMARK  116  A    between atoms: C_352  and  N_354
REMARK  117  A    between atoms: C_366  and  C_367
REMARK  118  A    between atoms: C_367  and  O_368
REMARK  119  A    between atoms: O_370  and  C_371
REMARK  120  A    between atoms: O_370  and  P_412
REMARK  121  A    between atoms: C_371  and  C_372
REMARK  122  A    between atoms: C_373  and  S_374
REMARK  123  A    between atoms: S_374  and  P_387
REMARK  124  A    between atoms: C_375  and  O_376
REMARK  125  A    between atoms: O_376  and  C_391
REMARK  126  A    between atoms: C_377  and  N_379
REMARK  127  A    between atoms: C_391  and  C_392
REMARK  128  A    between atoms: C_392  and  O_393
REMARK  129  A    between atoms: O_395  and  C_396
REMARK  130  A    between atoms: O_395  and  P_437
REMARK  131  A    between atoms: C_396  and  C_397
REMARK  132  A    between atoms: C_398  and  S_399
REMARK  133  A    between atoms: S_399  and  P_412
REMARK  134  A    between atoms: C_400  and  O_401
REMARK  135  A    between atoms: O_401  and  C_416
REMARK  136  A    between atoms: C_402  and  N_404
REMARK  137  A    between atoms: C_416  and  C_417
REMARK  138  A    between atoms: C_417  and  O_418
REMARK  139  A    between atoms: O_420  and  C_421
REMARK  140  A    between atoms: O_420  and  P_465
REMARK  141  A    between atoms: C_421  and  C_422
REMARK  142  A    between atoms: C_423  and  S_424
REMARK  143  A    between atoms: S_424  and  P_437
REMARK  144  A    between atoms: C_425  and  O_426
REMARK  145  A    between atoms: O_426  and  C_441
REMARK  146  A    between atoms: C_427  and  N_429
REMARK  147  A    between atoms: C_441  and  C_442
REMARK  148  A    between atoms: C_442  and  O_443
REMARK  149  A    between atoms: C_446  and  C_447
REMARK  150  A    between atoms: C_448  and  S_449
REMARK  151  A    between atoms: S_449  and  P_465
REMARK  152  A    between atoms: C_450  and  O_451
REMARK  153  A    between atoms: O_451  and  C_468
REMARK  154  A    between atoms: C_452  and  N_454
REMARK  155  A    between atoms: C_468  and  C_469
REMARK  156  A    between atoms: C_469  and  O_470
REMARK                            x       y       z     vdW  Elec       q    Type
REMARK                         _______ _______ _______ _____ _____    ______ ____
ROOT
ATOM      1 NA   UNL     1      -4.469 -16.594   0.000  0.00  0.00    +0.000 Na
ENDROOT
TORSDOF 0
REMARK  Name = 
REMARK  156 active torsions:
REMARK  status: ('A' for Active; 'I' for Inactive)
REMARK    1  A    between atoms: O_15  and  C_16
REMARK    2  A    between atoms: O_15  and  P_54
REMARK    3  A    between atoms: C_16  and  C_17
REMARK    4  A    between atoms: C_20  and  O_21
REMARK    5  A    between atoms: O_21  and  C_33
REMARK    6  A    between atoms: C_22  and  N_24
REMARK    7  A    between atoms: C_33  and  C_34
REMARK    8  A    between atoms: C_34  and  O_35
REMARK    9  A    between atoms: O_37  and  C_38
REMARK   10  A    between atoms: O_37  and  P_81
REMARK   11  A    between atoms: C_38  and  C_39
REMARK   12  A    between atoms: C_40  and  S_41
REMARK   13  A    between atoms: S_41  and  P_54
REMARK   14  A    between atoms: C_42  and  O_43
REMARK   15  A    between atoms: O_43  and  C_58
REMARK   16  A    between atoms: C_44  and  N_46
REMARK   17  A    between atoms: C_58  and  C_59
REMARK   18  A    between atoms: C_59  and  O_60
REMARK   19  A    between atoms: O_62  and  C_63
REMARK   20  A    between atoms: O_62  and  P_105
REMARK   21  A    between atoms: C_63  and  C_64
REMARK   22  A    between atoms: C_65  and  S_66
REMARK   23  A    between atoms: S_66  and  P_81
REMARK   24  A    between atoms: C_67  and  O_68
REMARK   25  A    between atoms: O_68  and  C_84
REMARK   26  A    between atoms: C_69  and  N_71
REMARK   27  A    between atoms: C_84  and  C_85
REMARK   28  A    between atoms: C_85  and  O_86
REMARK   29  A    between atoms: O_88  and  C_89
REMARK   30  A    between atoms: O_88  and  P_133
REMARK   31  A    between atoms: C_89  and  C_90
REMARK   32  A    between atoms: C_91  and  S_92
REMARK   33  A    between atoms: S_92  and  P_105
REMARK   34  A    between atoms: C_93  and  O_94
REMARK   35  A    between atoms: O_94  and  C_109
REMARK   36  A    between atoms: C_95  and  N_97
REMARK   37  A    between atoms: C_109  and  C_110
REMARK   38  A    between atoms: C_110  and  O_111
REMARK   39  A    between atoms: O_113  and  C_114
REMARK   40  A    between atoms: O_113  and  P_156
REMARK   41  A    between atoms: C_114  and  C_115
REMARK   42  A    between atoms: C_116  and  S_117
REMARK   43  A    between atoms: S_117  and  P_133
REMARK   44  A    between atoms: C_118  and  O_119
REMARK   45  A    between atoms: O_119  and  C_136
REMARK   46  A    between atoms: C_120  and  N_122
REMARK   47  A    between atoms: C_136  and  C_137
REMARK   48  A    between atoms: C_137  and  O_138
REMARK   49  A    between atoms: O_140  and  C_141
REMARK   50  A    between atoms: O_140  and  P_177
REMARK   51  A    between atoms: C_141  and  C_142
REMARK   52  A    between atoms: C_143  and  S_144
REMARK   53  A    between atoms: S_144  and  P_156
REMARK   54  A    between atoms: C_146  and  N_148
REMARK   55  A    between atoms: O_160  and  C_161
REMARK   56  A    between atoms: O_160  and  P_197
REMARK   57  A    between atoms: C_161  and  C_162
REMARK   58  A    between atoms: C_163  and  S_164
REMARK   59  A    between atoms: S_164  and  P_177
REMARK   60  A    between atoms: C_166  and  N_168
REMARK   61  A    between atoms: O_180  and  C_181
REMARK   62  A    between atoms: O_180  and  P_216
REMARK   63  A    between atoms: C_181  and  C_182
REMARK   64  A    between atoms: C_183  and  S_184
REMARK   65  A    between atoms: S_184  and  P_197
REMARK   66  A    between atoms: C_186  and  N_188
REMARK   67  A    between atoms: O_200  and  C_201
REMARK   68  A    between atoms: O_200  and  P_239
REMARK   69  A    between atoms: C_201  and  C_202
REMARK   70  A    between atoms: C_203  and  S_204
REMARK   71  A    between atoms: S_204  and  P_216
REMARK   72  A    between atoms: C_206  and  N_208
REMARK   73  A    between atoms: O_220  and  C_221
REMARK   74  A    between atoms: O_220  and  P_259
REMARK   75  A    between atoms: C_221  and  C_222
REMARK   76  A    between atoms: C_223  and  S_224
REMARK   77  A    between atoms: S_224  and  P_239
REMARK   78  A    between atoms: C_226  and  N_228
REMARK   79  A    between atoms: O_242  and  C_243
REMARK   80  A    between atoms: O_242  and  P_278
REMARK   81  A    between atoms: C_243  and  C_244
REMARK   82  A    between atoms: C_245  and  S_246
REMARK   83  A    between atoms: S_246  and  P_259
REMARK   84  A    between atoms: C_248  and  N_250
REMARK   85  A    between atoms: O_262  and  C_263
REMARK   86  A    between atoms: O_262  and  P_299
REMARK   87  A    between atoms: C_263  and  C_264
REMARK   88  A    between atoms: C_265  and  S_266
REMARK   89  A    between atoms: S_266  and  P_278
REMARK   90  A    between atoms: C_268  and  N_270
REMARK   91  A    between atoms: O_282  and  C_283
REMARK   92  A    between atoms: O_282  and  P_321
REMARK   93  A    between atoms: C_283  and  C_284
REMARK   94  A    between atoms: C_285  and  S_286
REMARK   95  A    between atoms: S_286  and  P_299
REMARK   96  A    between atoms: C_288  and  N_290
REMARK   97  A    between atoms: O_302  and  C_303
REMARK   98  A    between atoms: O_302  and  P_342
REMARK   99  A    between atoms: C_303  and  C_304
REMARK  100  A    between atoms: C_305  and  S_306
REMARK  101  A    between atoms: S_306  and  P_321
REMARK  102  A    between atoms: C_308  and  N_310
REMARK  103  A    between atoms: O_324  and  C_325
REMARK  104  A    between atoms: O_324  and  P_362
REMARK  105  A    between atoms: C_325  and  C_326
REMARK  106  A    between atoms: C_327  and  S_328
REMARK  107  A    between atoms: S_328  and  P_342
REMARK  108  A    between atoms: C_330  and  N_332
REMARK  109  A    between atoms: O_345  and  C_346
REMARK  110  A    between atoms: O_345  and  P_387
REMARK  111  A    between atoms: C_346  and  C_347
REMARK  112  A    between atoms: C_348  and  S_349
REMARK  113  A    between atoms: S_349  and  P_362
REMARK  114  A    between atoms: C_350  and  O_351
REMARK  115  A    between atoms: O_351  and  C_366
REMARK  116  A    between atoms: C_352  and  N_354
REMARK  117  A    between atoms: C_366  and  C_367
REMARK  118  A    between atoms: C_367  and  O_368
REMARK  119  A    between atoms: O_370  and  C_371
REMARK  120  A    between atoms: O_370  and  P_412
REMARK  121  A    between atoms: C_371  and  C_372
REMARK  122  A    between atoms: C_373  and  S_374
REMARK  123  A    between atoms: S_374  and  P_387
REMARK  124  A    between atoms: C_375  and  O_376
REMARK  125  A    between atoms: O_376  and  C_391
REMARK  126  A    between atoms: C_377  and  N_379
REMARK  127  A    between atoms: C_391  and  C_392
REMARK  128  A    between atoms: C_392  and  O_393
REMARK  129  A    between atoms: O_395  and  C_396
REMARK  130  A    between atoms: O_395  and  P_437
REMARK  131  A    between atoms: C_396  and  C_397
REMARK  132  A    between atoms: C_398  and  S_399
REMARK  133  A    between atoms: S_399  and  P_412
REMARK  134  A    between atoms: C_400  and  O_401
REMARK  135  A    between atoms: O_401  and  C_416
REMARK  136  A    between atoms: C_402  and  N_404
REMARK  137  A    between atoms: C_416  and  C_417
REMARK  138  A    between atoms: C_417  and  O_418
REMARK  139  A    between atoms: O_420  and  C_421
REMARK  140  A    between atoms: O_420  and  P_465
REMARK  141  A    between atoms: C_421  and  C_422
REMARK  142  A    between atoms: C_423  and  S_424
REMARK  143  A    between atoms: S_424  and  P_437
REMARK  144  A    between atoms: C_425  and  O_426
REMARK  145  A    between atoms: O_426  and  C_441
REMARK  146  A    between atoms: C_427  and  N_429
REMARK  147  A    between atoms: C_441  and  C_442
REMARK  148  A    between atoms: C_442  and  O_443
REMARK  149  A    between atoms: C_446  and  C_447
REMARK  150  A    between atoms: C_448  and  S_449
REMARK  151  A    between atoms: S_449  and  P_465
REMARK  152  A    between atoms: C_450  and  O_451
REMARK  153  A    between atoms: O_451  and  C_468
REMARK  154  A    between atoms: C_452  and  N_454
REMARK  155  A    between atoms: C_468  and  C_469
REMARK  156  A    between atoms: C_469  and  O_470
REMARK                            x       y       z     vdW  Elec       q    Type
REMARK                         _______ _______ _______ _____ _____    ______ ____
ROOT
ATOM      1 NA   UNL     1      43.613  -6.513   0.000  0.00  0.00    +0.000 Na
ENDROOT
TORSDOF 0
REMARK  Name = 
REMARK  156 active torsions:
REMARK  status: ('A' for Active; 'I' for Inactive)
REMARK    1  A    between atoms: O_15  and  C_16
REMARK    2  A    between atoms: O_15  and  P_54
REMARK    3  A    between atoms: C_16  and  C_17
REMARK    4  A    between atoms: C_20  and  O_21
REMARK    5  A    between atoms: O_21  and  C_33
REMARK    6  A    between atoms: C_22  and  N_24
REMARK    7  A    between atoms: C_33  and  C_34
REMARK    8  A    between atoms: C_34  and  O_35
REMARK    9  A    between atoms: O_37  and  C_38
REMARK   10  A    between atoms: O_37  and  P_81
REMARK   11  A    between atoms: C_38  and  C_39
REMARK   12  A    between atoms: C_40  and  S_41
REMARK   13  A    between atoms: S_41  and  P_54
REMARK   14  A    between atoms: C_42  and  O_43
REMARK   15  A    between atoms: O_43  and  C_58
REMARK   16  A    between atoms: C_44  and  N_46
REMARK   17  A    between atoms: C_58  and  C_59
REMARK   18  A    between atoms: C_59  and  O_60
REMARK   19  A    between atoms: O_62  and  C_63
REMARK   20  A    between atoms: O_62  and  P_105
REMARK   21  A    between atoms: C_63  and  C_64
REMARK   22  A    between atoms: C_65  and  S_66
REMARK   23  A    between atoms: S_66  and  P_81
REMARK   24  A    between atoms: C_67  and  O_68
REMARK   25  A    between atoms: O_68  and  C_84
REMARK   26  A    between atoms: C_69  and  N_71
REMARK   27  A    between atoms: C_84  and  C_85
REMARK   28  A    between atoms: C_85  and  O_86
REMARK   29  A    between atoms: O_88  and  C_89
REMARK   30  A    between atoms: O_88  and  P_133
REMARK   31  A    between atoms: C_89  and  C_90
REMARK   32  A    between atoms: C_91  and  S_92
REMARK   33  A    between atoms: S_92  and  P_105
REMARK   34  A    between atoms: C_93  and  O_94
REMARK   35  A    between atoms: O_94  and  C_109
REMARK   36  A    between atoms: C_95  and  N_97
REMARK   37  A    between atoms: C_109  and  C_110
REMARK   38  A    between atoms: C_110  and  O_111
REMARK   39  A    between atoms: O_113  and  C_114
REMARK   40  A    between atoms: O_113  and  P_156
REMARK   41  A    between atoms: C_114  and  C_115
REMARK   42  A    between atoms: C_116  and  S_117
REMARK   43  A    between atoms: S_117  and  P_133
REMARK   44  A    between atoms: C_118  and  O_119
REMARK   45  A    between atoms: O_119  and  C_136
REMARK   46  A    between atoms: C_120  and  N_122
REMARK   47  A    between atoms: C_136  and  C_137
REMARK   48  A    between atoms: C_137  and  O_138
REMARK   49  A    between atoms: O_140  and  C_141
REMARK   50  A    between atoms: O_140  and  P_177
REMARK   51  A    between atoms: C_141  and  C_142
REMARK   52  A    between atoms: C_143  and  S_144
REMARK   53  A    between atoms: S_144  and  P_156
REMARK   54  A    between atoms: C_146  and  N_148
REMARK   55  A    between atoms: O_160  and  C_161
REMARK   56  A    between atoms: O_160  and  P_197
REMARK   57  A    between atoms: C_161  and  C_162
REMARK   58  A    between atoms: C_163  and  S_164
REMARK   59  A    between atoms: S_164  and  P_177
REMARK   60  A    between atoms: C_166  and  N_168
REMARK   61  A    between atoms: O_180  and  C_181
REMARK   62  A    between atoms: O_180  and  P_216
REMARK   63  A    between atoms: C_181  and  C_182
REMARK   64  A    between atoms: C_183  and  S_184
REMARK   65  A    between atoms: S_184  and  P_197
REMARK   66  A    between atoms: C_186  and  N_188
REMARK   67  A    between atoms: O_200  and  C_201
REMARK   68  A    between atoms: O_200  and  P_239
REMARK   69  A    between atoms: C_201  and  C_202
REMARK   70  A    between atoms: C_203  and  S_204
REMARK   71  A    between atoms: S_204  and  P_216
REMARK   72  A    between atoms: C_206  and  N_208
REMARK   73  A    between atoms: O_220  and  C_221
REMARK   74  A    between atoms: O_220  and  P_259
REMARK   75  A    between atoms: C_221  and  C_222
REMARK   76  A    between atoms: C_223  and  S_224
REMARK   77  A    between atoms: S_224  and  P_239
REMARK   78  A    between atoms: C_226  and  N_228
REMARK   79  A    between atoms: O_242  and  C_243
REMARK   80  A    between atoms: O_242  and  P_278
REMARK   81  A    between atoms: C_243  and  C_244
REMARK   82  A    between atoms: C_245  and  S_246
REMARK   83  A    between atoms: S_246  and  P_259
REMARK   84  A    between atoms: C_248  and  N_250
REMARK   85  A    between atoms: O_262  and  C_263
REMARK   86  A    between atoms: O_262  and  P_299
REMARK   87  A    between atoms: C_263  and  C_264
REMARK   88  A    between atoms: C_265  and  S_266
REMARK   89  A    between atoms: S_266  and  P_278
REMARK   90  A    between atoms: C_268  and  N_270
REMARK   91  A    between atoms: O_282  and  C_283
REMARK   92  A    between atoms: O_282  and  P_321
REMARK   93  A    between atoms: C_283  and  C_284
REMARK   94  A    between atoms: C_285  and  S_286
REMARK   95  A    between atoms: S_286  and  P_299
REMARK   96  A    between atoms: C_288  and  N_290
REMARK   97  A    between atoms: O_302  and  C_303
REMARK   98  A    between atoms: O_302  and  P_342
REMARK   99  A    between atoms: C_303  and  C_304
REMARK  100  A    between atoms: C_305  and  S_306
REMARK  101  A    between atoms: S_306  and  P_321
REMARK  102  A    between atoms: C_308  and  N_310
REMARK  103  A    between atoms: O_324  and  C_325
REMARK  104  A    between atoms: O_324  and  P_362
REMARK  105  A    between atoms: C_325  and  C_326
REMARK  106  A    between atoms: C_327  and  S_328
REMARK  107  A    between atoms: S_328  and  P_342
REMARK  108  A    between atoms: C_330  and  N_332
REMARK  109  A    between atoms: O_345  and  C_346
REMARK  110  A    between atoms: O_345  and  P_387
REMARK  111  A    between atoms: C_346  and  C_347
REMARK  112  A    between atoms: C_348  and  S_349
REMARK  113  A    between atoms: S_349  and  P_362
REMARK  114  A    between atoms: C_350  and  O_351
REMARK  115  A    between atoms: O_351  and  C_366
REMARK  116  A    between atoms: C_352  and  N_354
REMARK  117  A    between atoms: C_366  and  C_367
REMARK  118  A    between atoms: C_367  and  O_368
REMARK  119  A    between atoms: O_370  and  C_371
REMARK  120  A    between atoms: O_370  and  P_412
REMARK  121  A    between atoms: C_371  and  C_372
REMARK  122  A    between atoms: C_373  and  S_374
REMARK  123  A    between atoms: S_374  and  P_387
REMARK  124  A    between atoms: C_375  and  O_376
REMARK  125  A    between atoms: O_376  and  C_391
REMARK  126  A    between atoms: C_377  and  N_379
REMARK  127  A    between atoms: C_391  and  C_392
REMARK  128  A    between atoms: C_392  and  O_393
REMARK  129  A    between atoms: O_395  and  C_396
REMARK  130  A    between atoms: O_395  and  P_437
REMARK  131  A    between atoms: C_396  and  C_397
REMARK  132  A    between atoms: C_398  and  S_399
REMARK  133  A    between atoms: S_399  and  P_412
REMARK  134  A    between atoms: C_400  and  O_401
REMARK  135  A    between atoms: O_401  and  C_416
REMARK  136  A    between atoms: C_402  and  N_404
REMARK  137  A    between atoms: C_416  and  C_417
REMARK  138  A    between atoms: C_417  and  O_418
REMARK  139  A    between atoms: O_420  and  C_421
REMARK  140  A    between atoms: O_420  and  P_465
REMARK  141  A    between atoms: C_421  and  C_422
REMARK  142  A    between atoms: C_423  and  S_424
REMARK  143  A    between atoms: S_424  and  P_437
REMARK  144  A    between atoms: C_425  and  O_426
REMARK  145  A    between atoms: O_426  and  C_441
REMARK  146  A    between atoms: C_427  and  N_429
REMARK  147  A    between atoms: C_441  and  C_442
REMARK  148  A    between atoms: C_442  and  O_443
REMARK  149  A    between atoms: C_446  and  C_447
REMARK  150  A    between atoms: C_448  and  S_449
REMARK  151  A    between atoms: S_449  and  P_465
REMARK  152  A    between atoms: C_450  and  O_451
REMARK  153  A    between atoms: O_451  and  C_468
REMARK  154  A    between atoms: C_452  and  N_454
REMARK  155  A    between atoms: C_468  and  C_469
REMARK  156  A    between atoms: C_469  and  O_470
REMARK                            x       y       z     vdW  Elec       q    Type
REMARK                         _______ _______ _______ _____ _____    ______ ____
ROOT
ATOM      1 NA   UNL     1      43.719 -11.703   0.000  0.00  0.00    +0.000 Na
ENDROOT
TORSDOF 0
REMARK  Name = 
REMARK  156 active torsions:
REMARK  status: ('A' for Active; 'I' for Inactive)
REMARK    1  A    between atoms: O_15  and  C_16
REMARK    2  A    between atoms: O_15  and  P_54
REMARK    3  A    between atoms: C_16  and  C_17
REMARK    4  A    between atoms: C_20  and  O_21
REMARK    5  A    between atoms: O_21  and  C_33
REMARK    6  A    between atoms: C_22  and  N_24
REMARK    7  A    between atoms: C_33  and  C_34
REMARK    8  A    between atoms: C_34  and  O_35
REMARK    9  A    between atoms: O_37  and  C_38
REMARK   10  A    between atoms: O_37  and  P_81
REMARK   11  A    between atoms: C_38  and  C_39
REMARK   12  A    between atoms: C_40  and  S_41
REMARK   13  A    between atoms: S_41  and  P_54
REMARK   14  A    between atoms: C_42  and  O_43
REMARK   15  A    between atoms: O_43  and  C_58
REMARK   16  A    between atoms: C_44  and  N_46
REMARK   17  A    between atoms: C_58  and  C_59
REMARK   18  A    between atoms: C_59  and  O_60
REMARK   19  A    between atoms: O_62  and  C_63
REMARK   20  A    between atoms: O_62  and  P_105
REMARK   21  A    between atoms: C_63  and  C_64
REMARK   22  A    between atoms: C_65  and  S_66
REMARK   23  A    between atoms: S_66  and  P_81
REMARK   24  A    between atoms: C_67  and  O_68
REMARK   25  A    between atoms: O_68  and  C_84
REMARK   26  A    between atoms: C_69  and  N_71
REMARK   27  A    between atoms: C_84  and  C_85
REMARK   28  A    between atoms: C_85  and  O_86
REMARK   29  A    between atoms: O_88  and  C_89
REMARK   30  A    between atoms: O_88  and  P_133
REMARK   31  A    between atoms: C_89  and  C_90
REMARK   32  A    between atoms: C_91  and  S_92
REMARK   33  A    between atoms: S_92  and  P_105
REMARK   34  A    between atoms: C_93  and  O_94
REMARK   35  A    between atoms: O_94  and  C_109
REMARK   36  A    between atoms: C_95  and  N_97
REMARK   37  A    between atoms: C_109  and  C_110
REMARK   38  A    between atoms: C_110  and  O_111
REMARK   39  A    between atoms: O_113  and  C_114
REMARK   40  A    between atoms: O_113  and  P_156
REMARK   41  A    between atoms: C_114  and  C_115
REMARK   42  A    between atoms: C_116  and  S_117
REMARK   43  A    between atoms: S_117  and  P_133
REMARK   44  A    between atoms: C_118  and  O_119
REMARK   45  A    between atoms: O_119  and  C_136
REMARK   46  A    between atoms: C_120  and  N_122
REMARK   47  A    between atoms: C_136  and  C_137
REMARK   48  A    between atoms: C_137  and  O_138
REMARK   49  A    between atoms: O_140  and  C_141
REMARK   50  A    between atoms: O_140  and  P_177
REMARK   51  A    between atoms: C_141  and  C_142
REMARK   52  A    between atoms: C_143  and  S_144
REMARK   53  A    between atoms: S_144  and  P_156
REMARK   54  A    between atoms: C_146  and  N_148
REMARK   55  A    between atoms: O_160  and  C_161
REMARK   56  A    between atoms: O_160  and  P_197
REMARK   57  A    between atoms: C_161  and  C_162
REMARK   58  A    between atoms: C_163  and  S_164
REMARK   59  A    between atoms: S_164  and  P_177
REMARK   60  A    between atoms: C_166  and  N_168
REMARK   61  A    between atoms: O_180  and  C_181
REMARK   62  A    between atoms: O_180  and  P_216
REMARK   63  A    between atoms: C_181  and  C_182
REMARK   64  A    between atoms: C_183  and  S_184
REMARK   65  A    between atoms: S_184  and  P_197
REMARK   66  A    between atoms: C_186  and  N_188
REMARK   67  A    between atoms: O_200  and  C_201
REMARK   68  A    between atoms: O_200  and  P_239
REMARK   69  A    between atoms: C_201  and  C_202
REMARK   70  A    between atoms: C_203  and  S_204
REMARK   71  A    between atoms: S_204  and  P_216
REMARK   72  A    between atoms: C_206  and  N_208
REMARK   73  A    between atoms: O_220  and  C_221
REMARK   74  A    between atoms: O_220  and  P_259
REMARK   75  A    between atoms: C_221  and  C_222
REMARK   76  A    between atoms: C_223  and  S_224
REMARK   77  A    between atoms: S_224  and  P_239
REMARK   78  A    between atoms: C_226  and  N_228
REMARK   79  A    between atoms: O_242  and  C_243
REMARK   80  A    between atoms: O_242  and  P_278
REMARK   81  A    between atoms: C_243  and  C_244
REMARK   82  A    between atoms: C_245  and  S_246
REMARK   83  A    between atoms: S_246  and  P_259
REMARK   84  A    between atoms: C_248  and  N_250
REMARK   85  A    between atoms: O_262  and  C_263
REMARK   86  A    between atoms: O_262  and  P_299
REMARK   87  A    between atoms: C_263  and  C_264
REMARK   88  A    between atoms: C_265  and  S_266
REMARK   89  A    between atoms: S_266  and  P_278
REMARK   90  A    between atoms: C_268  and  N_270
REMARK   91  A    between atoms: O_282  and  C_283
REMARK   92  A    between atoms: O_282  and  P_321
REMARK   93  A    between atoms: C_283  and  C_284
REMARK   94  A    between atoms: C_285  and  S_286
REMARK   95  A    between atoms: S_286  and  P_299
REMARK   96  A    between atoms: C_288  and  N_290
REMARK   97  A    between atoms: O_302  and  C_303
REMARK   98  A    between atoms: O_302  and  P_342
REMARK   99  A    between atoms: C_303  and  C_304
REMARK  100  A    between atoms: C_305  and  S_306
REMARK  101  A    between atoms: S_306  and  P_321
REMARK  102  A    between atoms: C_308  and  N_310
REMARK  103  A    between atoms: O_324  and  C_325
REMARK  104  A    between atoms: O_324  and  P_362
REMARK  105  A    between atoms: C_325  and  C_326
REMARK  106  A    between atoms: C_327  and  S_328
REMARK  107  A    between atoms: S_328  and  P_342
REMARK  108  A    between atoms: C_330  and  N_332
REMARK  109  A    between atoms: O_345  and  C_346
REMARK  110  A    between atoms: O_345  and  P_387
REMARK  111  A    between atoms: C_346  and  C_347
REMARK  112  A    between atoms: C_348  and  S_349
REMARK  113  A    between atoms: S_349  and  P_362
REMARK  114  A    between atoms: C_350  and  O_351
REMARK  115  A    between atoms: O_351  and  C_366
REMARK  116  A    between atoms: C_352  and  N_354
REMARK  117  A    between atoms: C_366  and  C_367
REMARK  118  A    between atoms: C_367  and  O_368
REMARK  119  A    between atoms: O_370  and  C_371
REMARK  120  A    between atoms: O_370  and  P_412
REMARK  121  A    between atoms: C_371  and  C_372
REMARK  122  A    between atoms: C_373  and  S_374
REMARK  123  A    between atoms: S_374  and  P_387
REMARK  124  A    between atoms: C_375  and  O_376
REMARK  125  A    between atoms: O_376  and  C_391
REMARK  126  A    between atoms: C_377  and  N_379
REMARK  127  A    between atoms: C_391  and  C_392
REMARK  128  A    between atoms: C_392  and  O_393
REMARK  129  A    between atoms: O_395  and  C_396
REMARK  130  A    between atoms: O_395  and  P_437
REMARK  131  A    between atoms: C_396  and  C_397
REMARK  132  A    between atoms: C_398  and  S_399
REMARK  133  A    between atoms: S_399  and  P_412
REMARK  134  A    between atoms: C_400  and  O_401
REMARK  135  A    between atoms: O_401  and  C_416
REMARK  136  A    between atoms: C_402  and  N_404
REMARK  137  A    between atoms: C_416  and  C_417
REMARK  138  A    between atoms: C_417  and  O_418
REMARK  139  A    between atoms: O_420  and  C_421
REMARK  140  A    between atoms: O_420  and  P_465
REMARK  141  A    between atoms: C_421  and  C_422
REMARK  142  A    between atoms: C_423  and  S_424
REMARK  143  A    between atoms: S_424  and  P_437
REMARK  144  A    between atoms: C_425  and  O_426
REMARK  145  A    between atoms: O_426  and  C_441
REMARK  146  A    between atoms: C_427  and  N_429
REMARK  147  A    between atoms: C_441  and  C_442
REMARK  148  A    between atoms: C_442  and  O_443
REMARK  149  A    between atoms: C_446  and  C_447
REMARK  150  A    between atoms: C_448  and  S_449
REMARK  151  A    between atoms: S_449  and  P_465
REMARK  152  A    between atoms: C_450  and  O_451
REMARK  153  A    between atoms: O_451  and  C_468
REMARK  154  A    between atoms: C_452  and  N_454
REMARK  155  A    between atoms: C_468  and  C_469
REMARK  156  A    between atoms: C_469  and  O_470
REMARK                            x       y       z     vdW  Elec       q    Type
REMARK                         _______ _______ _______ _____ _____    ______ ____
ROOT
ATOM      1 NA   UNL     1      22.125 -21.554   0.000  0.00  0.00    +0.000 Na
ENDROOT
TORSDOF 0
REMARK  Name = 
REMARK  156 active torsions:
REMARK  status: ('A' for Active; 'I' for Inactive)
REMARK    1  A    between atoms: O_15  and  C_16
REMARK    2  A    between atoms: O_15  and  P_54
REMARK    3  A    between atoms: C_16  and  C_17
REMARK    4  A    between atoms: C_20  and  O_21
REMARK    5  A    between atoms: O_21  and  C_33
REMARK    6  A    between atoms: C_22  and  N_24
REMARK    7  A    between atoms: C_33  and  C_34
REMARK    8  A    between atoms: C_34  and  O_35
REMARK    9  A    between atoms: O_37  and  C_38
REMARK   10  A    between atoms: O_37  and  P_81
REMARK   11  A    between atoms: C_38  and  C_39
REMARK   12  A    between atoms: C_40  and  S_41
REMARK   13  A    between atoms: S_41  and  P_54
REMARK   14  A    between atoms: C_42  and  O_43
REMARK   15  A    between atoms: O_43  and  C_58
REMARK   16  A    between atoms: C_44  and  N_46
REMARK   17  A    between atoms: C_58  and  C_59
REMARK   18  A    between atoms: C_59  and  O_60
REMARK   19  A    between atoms: O_62  and  C_63
REMARK   20  A    between atoms: O_62  and  P_105
REMARK   21  A    between atoms: C_63  and  C_64
REMARK   22  A    between atoms: C_65  and  S_66
REMARK   23  A    between atoms: S_66  and  P_81
REMARK   24  A    between atoms: C_67  and  O_68
REMARK   25  A    between atoms: O_68  and  C_84
REMARK   26  A    between atoms: C_69  and  N_71
REMARK   27  A    between atoms: C_84  and  C_85
REMARK   28  A    between atoms: C_85  and  O_86
REMARK   29  A    between atoms: O_88  and  C_89
REMARK   30  A    between atoms: O_88  and  P_133
REMARK   31  A    between atoms: C_89  and  C_90
REMARK   32  A    between atoms: C_91  and  S_92
REMARK   33  A    between atoms: S_92  and  P_105
REMARK   34  A    between atoms: C_93  and  O_94
REMARK   35  A    between atoms: O_94  and  C_109
REMARK   36  A    between atoms: C_95  and  N_97
REMARK   37  A    between atoms: C_109  and  C_110
REMARK   38  A    between atoms: C_110  and  O_111
REMARK   39  A    between atoms: O_113  and  C_114
REMARK   40  A    between atoms: O_113  and  P_156
REMARK   41  A    between atoms: C_114  and  C_115
REMARK   42  A    between atoms: C_116  and  S_117
REMARK   43  A    between atoms: S_117  and  P_133
REMARK   44  A    between atoms: C_118  and  O_119
REMARK   45  A    between atoms: O_119  and  C_136
REMARK   46  A    between atoms: C_120  and  N_122
REMARK   47  A    between atoms: C_136  and  C_137
REMARK   48  A    between atoms: C_137  and  O_138
REMARK   49  A    between atoms: O_140  and  C_141
REMARK   50  A    between atoms: O_140  and  P_177
REMARK   51  A    between atoms: C_141  and  C_142
REMARK   52  A    between atoms: C_143  and  S_144
REMARK   53  A    between atoms: S_144  and  P_156
REMARK   54  A    between atoms: C_146  and  N_148
REMARK   55  A    between atoms: O_160  and  C_161
REMARK   56  A    between atoms: O_160  and  P_197
REMARK   57  A    between atoms: C_161  and  C_162
REMARK   58  A    between atoms: C_163  and  S_164
REMARK   59  A    between atoms: S_164  and  P_177
REMARK   60  A    between atoms: C_166  and  N_168
REMARK   61  A    between atoms: O_180  and  C_181
REMARK   62  A    between atoms: O_180  and  P_216
REMARK   63  A    between atoms: C_181  and  C_182
REMARK   64  A    between atoms: C_183  and  S_184
REMARK   65  A    between atoms: S_184  and  P_197
REMARK   66  A    between atoms: C_186  and  N_188
REMARK   67  A    between atoms: O_200  and  C_201
REMARK   68  A    between atoms: O_200  and  P_239
REMARK   69  A    between atoms: C_201  and  C_202
REMARK   70  A    between atoms: C_203  and  S_204
REMARK   71  A    between atoms: S_204  and  P_216
REMARK   72  A    between atoms: C_206  and  N_208
REMARK   73  A    between atoms: O_220  and  C_221
REMARK   74  A    between atoms: O_220  and  P_259
REMARK   75  A    between atoms: C_221  and  C_222
REMARK   76  A    between atoms: C_223  and  S_224
REMARK   77  A    between atoms: S_224  and  P_239
REMARK   78  A    between atoms: C_226  and  N_228
REMARK   79  A    between atoms: O_242  and  C_243
REMARK   80  A    between atoms: O_242  and  P_278
REMARK   81  A    between atoms: C_243  and  C_244
REMARK   82  A    between atoms: C_245  and  S_246
REMARK   83  A    between atoms: S_246  and  P_259
REMARK   84  A    between atoms: C_248  and  N_250
REMARK   85  A    between atoms: O_262  and  C_263
REMARK   86  A    between atoms: O_262  and  P_299
REMARK   87  A    between atoms: C_263  and  C_264
REMARK   88  A    between atoms: C_265  and  S_266
REMARK   89  A    between atoms: S_266  and  P_278
REMARK   90  A    between atoms: C_268  and  N_270
REMARK   91  A    between atoms: O_282  and  C_283
REMARK   92  A    between atoms: O_282  and  P_321
REMARK   93  A    between atoms: C_283  and  C_284
REMARK   94  A    between atoms: C_285  and  S_286
REMARK   95  A    between atoms: S_286  and  P_299
REMARK   96  A    between atoms: C_288  and  N_290
REMARK   97  A    between atoms: O_302  and  C_303
REMARK   98  A    between atoms: O_302  and  P_342
REMARK   99  A    between atoms: C_303  and  C_304
REMARK  100  A    between atoms: C_305  and  S_306
REMARK  101  A    between atoms: S_306  and  P_321
REMARK  102  A    between atoms: C_308  and  N_310
REMARK  103  A    between atoms: O_324  and  C_325
REMARK  104  A    between atoms: O_324  and  P_362
REMARK  105  A    between atoms: C_325  and  C_326
REMARK  106  A    between atoms: C_327  and  S_328
REMARK  107  A    between atoms: S_328  and  P_342
REMARK  108  A    between atoms: C_330  and  N_332
REMARK  109  A    between atoms: O_345  and  C_346
REMARK  110  A    between atoms: O_345  and  P_387
REMARK  111  A    between atoms: C_346  and  C_347
REMARK  112  A    between atoms: C_348  and  S_349
REMARK  113  A    between atoms: S_349  and  P_362
REMARK  114  A    between atoms: C_350  and  O_351
REMARK  115  A    between atoms: O_351  and  C_366
REMARK  116  A    between atoms: C_352  and  N_354
REMARK  117  A    between atoms: C_366  and  C_367
REMARK  118  A    between atoms: C_367  and  O_368
REMARK  119  A    between atoms: O_370  and  C_371
REMARK  120  A    between atoms: O_370  and  P_412
REMARK  121  A    between atoms: C_371  and  C_372
REMARK  122  A    between atoms: C_373  and  S_374
REMARK  123  A    between atoms: S_374  and  P_387
REMARK  124  A    between atoms: C_375  and  O_376
REMARK  125  A    between atoms: O_376  and  C_391
REMARK  126  A    between atoms: C_377  and  N_379
REMARK  127  A    between atoms: C_391  and  C_392
REMARK  128  A    between atoms: C_392  and  O_393
REMARK  129  A    between atoms: O_395  and  C_396
REMARK  130  A    between atoms: O_395  and  P_437
REMARK  131  A    between atoms: C_396  and  C_397
REMARK  132  A    between atoms: C_398  and  S_399
REMARK  133  A    between atoms: S_399  and  P_412
REMARK  134  A    between atoms: C_400  and  O_401
REMARK  135  A    between atoms: O_401  and  C_416
REMARK  136  A    between atoms: C_402  and  N_404
REMARK  137  A    between atoms: C_416  and  C_417
REMARK  138  A    between atoms: C_417  and  O_418
REMARK  139  A    between atoms: O_420  and  C_421
REMARK  140  A    between atoms: O_420  and  P_465
REMARK  141  A    between atoms: C_421  and  C_422
REMARK  142  A    between atoms: C_423  and  S_424
REMARK  143  A    between atoms: S_424  and  P_437
REMARK  144  A    between atoms: C_425  and  O_426
REMARK  145  A    between atoms: O_426  and  C_441
REMARK  146  A    between atoms: C_427  and  N_429
REMARK  147  A    between atoms: C_441  and  C_442
REMARK  148  A    between atoms: C_442  and  O_443
REMARK  149  A    between atoms: C_446  and  C_447
REMARK  150  A    between atoms: C_448  and  S_449
REMARK  151  A    between atoms: S_449  and  P_465
REMARK  152  A    between atoms: C_450  and  O_451
REMARK  153  A    between atoms: O_451  and  C_468
REMARK  154  A    between atoms: C_452  and  N_454
REMARK  155  A    between atoms: C_468  and  C_469
REMARK  156  A    between atoms: C_469  and  O_470
REMARK                            x       y       z     vdW  Elec       q    Type
REMARK                         _______ _______ _______ _____ _____    ______ ____
ROOT
ATOM      1 NA   UNL     1      43.397 -16.766   0.000  0.00  0.00    +0.000 Na
ENDROOT
TORSDOF 0
REMARK  Name = 
REMARK  156 active torsions:
REMARK  status: ('A' for Active; 'I' for Inactive)
REMARK    1  A    between atoms: O_15  and  C_16
REMARK    2  A    between atoms: O_15  and  P_54
REMARK    3  A    between atoms: C_16  and  C_17
REMARK    4  A    between atoms: C_20  and  O_21
REMARK    5  A    between atoms: O_21  and  C_33
REMARK    6  A    between atoms: C_22  and  N_24
REMARK    7  A    between atoms: C_33  and  C_34
REMARK    8  A    between atoms: C_34  and  O_35
REMARK    9  A    between atoms: O_37  and  C_38
REMARK   10  A    between atoms: O_37  and  P_81
REMARK   11  A    between atoms: C_38  and  C_39
REMARK   12  A    between atoms: C_40  and  S_41
REMARK   13  A    between atoms: S_41  and  P_54
REMARK   14  A    between atoms: C_42  and  O_43
REMARK   15  A    between atoms: O_43  and  C_58
REMARK   16  A    between atoms: C_44  and  N_46
REMARK   17  A    between atoms: C_58  and  C_59
REMARK   18  A    between atoms: C_59  and  O_60
REMARK   19  A    between atoms: O_62  and  C_63
REMARK   20  A    between atoms: O_62  and  P_105
REMARK   21  A    between atoms: C_63  and  C_64
REMARK   22  A    between atoms: C_65  and  S_66
REMARK   23  A    between atoms: S_66  and  P_81
REMARK   24  A    between atoms: C_67  and  O_68
REMARK   25  A    between atoms: O_68  and  C_84
REMARK   26  A    between atoms: C_69  and  N_71
REMARK   27  A    between atoms: C_84  and  C_85
REMARK   28  A    between atoms: C_85  and  O_86
REMARK   29  A    between atoms: O_88  and  C_89
REMARK   30  A    between atoms: O_88  and  P_133
REMARK   31  A    between atoms: C_89  and  C_90
REMARK   32  A    between atoms: C_91  and  S_92
REMARK   33  A    between atoms: S_92  and  P_105
REMARK   34  A    between atoms: C_93  and  O_94
REMARK   35  A    between atoms: O_94  and  C_109
REMARK   36  A    between atoms: C_95  and  N_97
REMARK   37  A    between atoms: C_109  and  C_110
REMARK   38  A    between atoms: C_110  and  O_111
REMARK   39  A    between atoms: O_113  and  C_114
REMARK   40  A    between atoms: O_113  and  P_156
REMARK   41  A    between atoms: C_114  and  C_115
REMARK   42  A    between atoms: C_116  and  S_117
REMARK   43  A    between atoms: S_117  and  P_133
REMARK   44  A    between atoms: C_118  and  O_119
REMARK   45  A    between atoms: O_119  and  C_136
REMARK   46  A    between atoms: C_120  and  N_122
REMARK   47  A    between atoms: C_136  and  C_137
REMARK   48  A    between atoms: C_137  and  O_138
REMARK   49  A    between atoms: O_140  and  C_141
REMARK   50  A    between atoms: O_140  and  P_177
REMARK   51  A    between atoms: C_141  and  C_142
REMARK   52  A    between atoms: C_143  and  S_144
REMARK   53  A    between atoms: S_144  and  P_156
REMARK   54  A    between atoms: C_146  and  N_148
REMARK   55  A    between atoms: O_160  and  C_161
REMARK   56  A    between atoms: O_160  and  P_197
REMARK   57  A    between atoms: C_161  and  C_162
REMARK   58  A    between atoms: C_163  and  S_164
REMARK   59  A    between atoms: S_164  and  P_177
REMARK   60  A    between atoms: C_166  and  N_168
REMARK   61  A    between atoms: O_180  and  C_181
REMARK   62  A    between atoms: O_180  and  P_216
REMARK   63  A    between atoms: C_181  and  C_182
REMARK   64  A    between atoms: C_183  and  S_184
REMARK   65  A    between atoms: S_184  and  P_197
REMARK   66  A    between atoms: C_186  and  N_188
REMARK   67  A    between atoms: O_200  and  C_201
REMARK   68  A    between atoms: O_200  and  P_239
REMARK   69  A    between atoms: C_201  and  C_202
REMARK   70  A    between atoms: C_203  and  S_204
REMARK   71  A    between atoms: S_204  and  P_216
REMARK   72  A    between atoms: C_206  and  N_208
REMARK   73  A    between atoms: O_220  and  C_221
REMARK   74  A    between atoms: O_220  and  P_259
REMARK   75  A    between atoms: C_221  and  C_222
REMARK   76  A    between atoms: C_223  and  S_224
REMARK   77  A    between atoms: S_224  and  P_239
REMARK   78  A    between atoms: C_226  and  N_228
REMARK   79  A    between atoms: O_242  and  C_243
REMARK   80  A    between atoms: O_242  and  P_278
REMARK   81  A    between atoms: C_243  and  C_244
REMARK   82  A    between atoms: C_245  and  S_246
REMARK   83  A    between atoms: S_246  and  P_259
REMARK   84  A    between atoms: C_248  and  N_250
REMARK   85  A    between atoms: O_262  and  C_263
REMARK   86  A    between atoms: O_262  and  P_299
REMARK   87  A    between atoms: C_263  and  C_264
REMARK   88  A    between atoms: C_265  and  S_266
REMARK   89  A    between atoms: S_266  and  P_278
REMARK   90  A    between atoms: C_268  and  N_270
REMARK   91  A    between atoms: O_282  and  C_283
REMARK   92  A    between atoms: O_282  and  P_321
REMARK   93  A    between atoms: C_283  and  C_284
REMARK   94  A    between atoms: C_285  and  S_286
REMARK   95  A    between atoms: S_286  and  P_299
REMARK   96  A    between atoms: C_288  and  N_290
REMARK   97  A    between atoms: O_302  and  C_303
REMARK   98  A    between atoms: O_302  and  P_342
REMARK   99  A    between atoms: C_303  and  C_304
REMARK  100  A    between atoms: C_305  and  S_306
REMARK  101  A    between atoms: S_306  and  P_321
REMARK  102  A    between atoms: C_308  and  N_310
REMARK  103  A    between atoms: O_324  and  C_325
REMARK  104  A    between atoms: O_324  and  P_362
REMARK  105  A    between atoms: C_325  and  C_326
REMARK  106  A    between atoms: C_327  and  S_328
REMARK  107  A    between atoms: S_328  and  P_342
REMARK  108  A    between atoms: C_330  and  N_332
REMARK  109  A    between atoms: O_345  and  C_346
REMARK  110  A    between atoms: O_345  and  P_387
REMARK  111  A    between atoms: C_346  and  C_347
REMARK  112  A    between atoms: C_348  and  S_349
REMARK  113  A    between atoms: S_349  and  P_362
REMARK  114  A    between atoms: C_350  and  O_351
REMARK  115  A    between atoms: O_351  and  C_366
REMARK  116  A    between atoms: C_352  and  N_354
REMARK  117  A    between atoms: C_366  and  C_367
REMARK  118  A    between atoms: C_367  and  O_368
REMARK  119  A    between atoms: O_370  and  C_371
REMARK  120  A    between atoms: O_370  and  P_412
REMARK  121  A    between atoms: C_371  and  C_372
REMARK  122  A    between atoms: C_373  and  S_374
REMARK  123  A    between atoms: S_374  and  P_387
REMARK  124  A    between atoms: C_375  and  O_376
REMARK  125  A    between atoms: O_376  and  C_391
REMARK  126  A    between atoms: C_377  and  N_379
REMARK  127  A    between atoms: C_391  and  C_392
REMARK  128  A    between atoms: C_392  and  O_393
REMARK  129  A    between atoms: O_395  and  C_396
REMARK  130  A    between atoms: O_395  and  P_437
REMARK  131  A    between atoms: C_396  and  C_397
REMARK  132  A    between atoms: C_398  and  S_399
REMARK  133  A    between atoms: S_399  and  P_412
REMARK  134  A    between atoms: C_400  and  O_401
REMARK  135  A    between atoms: O_401  and  C_416
REMARK  136  A    between atoms: C_402  and  N_404
REMARK  137  A    between atoms: C_416  and  C_417
REMARK  138  A    between atoms: C_417  and  O_418
REMARK  139  A    between atoms: O_420  and  C_421
REMARK  140  A    between atoms: O_420  and  P_465
REMARK  141  A    between atoms: C_421  and  C_422
REMARK  142  A    between atoms: C_423  and  S_424
REMARK  143  A    between atoms: S_424  and  P_437
REMARK  144  A    between atoms: C_425  and  O_426
REMARK  145  A    between atoms: O_426  and  C_441
REMARK  146  A    between atoms: C_427  and  N_429
REMARK  147  A    between atoms: C_441  and  C_442
REMARK  148  A    between atoms: C_442  and  O_443
REMARK  149  A    between atoms: C_446  and  C_447
REMARK  150  A    between atoms: C_448  and  S_449
REMARK  151  A    between atoms: S_449  and  P_465
REMARK  152  A    between atoms: C_450  and  O_451
REMARK  153  A    between atoms: O_451  and  C_468
REMARK  154  A    between atoms: C_452  and  N_454
REMARK  155  A    between atoms: C_468  and  C_469
REMARK  156  A    between atoms: C_469  and  O_470
REMARK                            x       y       z     vdW  Elec       q    Type
REMARK                         _______ _______ _______ _____ _____    ______ ____
ROOT
ATOM      1 NA   UNL     1      43.626 -13.918   0.000  0.00  0.00    +0.000 Na
ENDROOT
TORSDOF 0
REMARK  Name = 
REMARK  156 active torsions:
REMARK  status: ('A' for Active; 'I' for Inactive)
REMARK    1  A    between atoms: O_15  and  C_16
REMARK    2  A    between atoms: O_15  and  P_54
REMARK    3  A    between atoms: C_16  and  C_17
REMARK    4  A    between atoms: C_20  and  O_21
REMARK    5  A    between atoms: O_21  and  C_33
REMARK    6  A    between atoms: C_22  and  N_24
REMARK    7  A    between atoms: C_33  and  C_34
REMARK    8  A    between atoms: C_34  and  O_35
REMARK    9  A    between atoms: O_37  and  C_38
REMARK   10  A    between atoms: O_37  and  P_81
REMARK   11  A    between atoms: C_38  and  C_39
REMARK   12  A    between atoms: C_40  and  S_41
REMARK   13  A    between atoms: S_41  and  P_54
REMARK   14  A    between atoms: C_42  and  O_43
REMARK   15  A    between atoms: O_43  and  C_58
REMARK   16  A    between atoms: C_44  and  N_46
REMARK   17  A    between atoms: C_58  and  C_59
REMARK   18  A    between atoms: C_59  and  O_60
REMARK   19  A    between atoms: O_62  and  C_63
REMARK   20  A    between atoms: O_62  and  P_105
REMARK   21  A    between atoms: C_63  and  C_64
REMARK   22  A    between atoms: C_65  and  S_66
REMARK   23  A    between atoms: S_66  and  P_81
REMARK   24  A    between atoms: C_67  and  O_68
REMARK   25  A    between atoms: O_68  and  C_84
REMARK   26  A    between atoms: C_69  and  N_71
REMARK   27  A    between atoms: C_84  and  C_85
REMARK   28  A    between atoms: C_85  and  O_86
REMARK   29  A    between atoms: O_88  and  C_89
REMARK   30  A    between atoms: O_88  and  P_133
REMARK   31  A    between atoms: C_89  and  C_90
REMARK   32  A    between atoms: C_91  and  S_92
REMARK   33  A    between atoms: S_92  and  P_105
REMARK   34  A    between atoms: C_93  and  O_94
REMARK   35  A    between atoms: O_94  and  C_109
REMARK   36  A    between atoms: C_95  and  N_97
REMARK   37  A    between atoms: C_109  and  C_110
REMARK   38  A    between atoms: C_110  and  O_111
REMARK   39  A    between atoms: O_113  and  C_114
REMARK   40  A    between atoms: O_113  and  P_156
REMARK   41  A    between atoms: C_114  and  C_115
REMARK   42  A    between atoms: C_116  and  S_117
REMARK   43  A    between atoms: S_117  and  P_133
REMARK   44  A    between atoms: C_118  and  O_119
REMARK   45  A    between atoms: O_119  and  C_136
REMARK   46  A    between atoms: C_120  and  N_122
REMARK   47  A    between atoms: C_136  and  C_137
REMARK   48  A    between atoms: C_137  and  O_138
REMARK   49  A    between atoms: O_140  and  C_141
REMARK   50  A    between atoms: O_140  and  P_177
REMARK   51  A    between atoms: C_141  and  C_142
REMARK   52  A    between atoms: C_143  and  S_144
REMARK   53  A    between atoms: S_144  and  P_156
REMARK   54  A    between atoms: C_146  and  N_148
REMARK   55  A    between atoms: O_160  and  C_161
REMARK   56  A    between atoms: O_160  and  P_197
REMARK   57  A    between atoms: C_161  and  C_162
REMARK   58  A    between atoms: C_163  and  S_164
REMARK   59  A    between atoms: S_164  and  P_177
REMARK   60  A    between atoms: C_166  and  N_168
REMARK   61  A    between atoms: O_180  and  C_181
REMARK   62  A    between atoms: O_180  and  P_216
REMARK   63  A    between atoms: C_181  and  C_182
REMARK   64  A    between atoms: C_183  and  S_184
REMARK   65  A    between atoms: S_184  and  P_197
REMARK   66  A    between atoms: C_186  and  N_188
REMARK   67  A    between atoms: O_200  and  C_201
REMARK   68  A    between atoms: O_200  and  P_239
REMARK   69  A    between atoms: C_201  and  C_202
REMARK   70  A    between atoms: C_203  and  S_204
REMARK   71  A    between atoms: S_204  and  P_216
REMARK   72  A    between atoms: C_206  and  N_208
REMARK   73  A    between atoms: O_220  and  C_221
REMARK   74  A    between atoms: O_220  and  P_259
REMARK   75  A    between atoms: C_221  and  C_222
REMARK   76  A    between atoms: C_223  and  S_224
REMARK   77  A    between atoms: S_224  and  P_239
REMARK   78  A    between atoms: C_226  and  N_228
REMARK   79  A    between atoms: O_242  and  C_243
REMARK   80  A    between atoms: O_242  and  P_278
REMARK   81  A    between atoms: C_243  and  C_244
REMARK   82  A    between atoms: C_245  and  S_246
REMARK   83  A    between atoms: S_246  and  P_259
REMARK   84  A    between atoms: C_248  and  N_250
REMARK   85  A    between atoms: O_262  and  C_263
REMARK   86  A    between atoms: O_262  and  P_299
REMARK   87  A    between atoms: C_263  and  C_264
REMARK   88  A    between atoms: C_265  and  S_266
REMARK   89  A    between atoms: S_266  and  P_278
REMARK   90  A    between atoms: C_268  and  N_270
REMARK   91  A    between atoms: O_282  and  C_283
REMARK   92  A    between atoms: O_282  and  P_321
REMARK   93  A    between atoms: C_283  and  C_284
REMARK   94  A    between atoms: C_285  and  S_286
REMARK   95  A    between atoms: S_286  and  P_299
REMARK   96  A    between atoms: C_288  and  N_290
REMARK   97  A    between atoms: O_302  and  C_303
REMARK   98  A    between atoms: O_302  and  P_342
REMARK   99  A    between atoms: C_303  and  C_304
REMARK  100  A    between atoms: C_305  and  S_306
REMARK  101  A    between atoms: S_306  and  P_321
REMARK  102  A    between atoms: C_308  and  N_310
REMARK  103  A    between atoms: O_324  and  C_325
REMARK  104  A    between atoms: O_324  and  P_362
REMARK  105  A    between atoms: C_325  and  C_326
REMARK  106  A    between atoms: C_327  and  S_328
REMARK  107  A    between atoms: S_328  and  P_342
REMARK  108  A    between atoms: C_330  and  N_332
REMARK  109  A    between atoms: O_345  and  C_346
REMARK  110  A    between atoms: O_345  and  P_387
REMARK  111  A    between atoms: C_346  and  C_347
REMARK  112  A    between atoms: C_348  and  S_349
REMARK  113  A    between atoms: S_349  and  P_362
REMARK  114  A    between atoms: C_350  and  O_351
REMARK  115  A    between atoms: O_351  and  C_366
REMARK  116  A    between atoms: C_352  and  N_354
REMARK  117  A    between atoms: C_366  and  C_367
REMARK  118  A    between atoms: C_367  and  O_368
REMARK  119  A    between atoms: O_370  and  C_371
REMARK  120  A    between atoms: O_370  and  P_412
REMARK  121  A    between atoms: C_371  and  C_372
REMARK  122  A    between atoms: C_373  and  S_374
REMARK  123  A    between atoms: S_374  and  P_387
REMARK  124  A    between atoms: C_375  and  O_376
REMARK  125  A    between atoms: O_376  and  C_391
REMARK  126  A    between atoms: C_377  and  N_379
REMARK  127  A    between atoms: C_391  and  C_392
REMARK  128  A    between atoms: C_392  and  O_393
REMARK  129  A    between atoms: O_395  and  C_396
REMARK  130  A    between atoms: O_395  and  P_437
REMARK  131  A    between atoms: C_396  and  C_397
REMARK  132  A    between atoms: C_398  and  S_399
REMARK  133  A    between atoms: S_399  and  P_412
REMARK  134  A    between atoms: C_400  and  O_401
REMARK  135  A    between atoms: O_401  and  C_416
REMARK  136  A    between atoms: C_402  and  N_404
REMARK  137  A    between atoms: C_416  and  C_417
REMARK  138  A    between atoms: C_417  and  O_418
REMARK  139  A    between atoms: O_420  and  C_421
REMARK  140  A    between atoms: O_420  and  P_465
REMARK  141  A    between atoms: C_421  and  C_422
REMARK  142  A    between atoms: C_423  and  S_424
REMARK  143  A    between atoms: S_424  and  P_437
REMARK  144  A    between atoms: C_425  and  O_426
REMARK  145  A    between atoms: O_426  and  C_441
REMARK  146  A    between atoms: C_427  and  N_429
REMARK  147  A    between atoms: C_441  and  C_442
REMARK  148  A    between atoms: C_442  and  O_443
REMARK  149  A    between atoms: C_446  and  C_447
REMARK  150  A    between atoms: C_448  and  S_449
REMARK  151  A    between atoms: S_449  and  P_465
REMARK  152  A    between atoms: C_450  and  O_451
REMARK  153  A    between atoms: O_451  and  C_468
REMARK  154  A    between atoms: C_452  and  N_454
REMARK  155  A    between atoms: C_468  and  C_469
REMARK  156  A    between atoms: C_469  and  O_470
REMARK                            x       y       z     vdW  Elec       q    Type
REMARK                         _______ _______ _______ _____ _____    ______ ____
ROOT
ATOM      1 NA   UNL     1      20.161 -21.448   0.000  0.00  0.00    +0.000 Na
ENDROOT
TORSDOF 0
REMARK  Name = 
REMARK  156 active torsions:
REMARK  status: ('A' for Active; 'I' for Inactive)
REMARK    1  A    between atoms: O_15  and  C_16
REMARK    2  A    between atoms: O_15  and  P_54
REMARK    3  A    between atoms: C_16  and  C_17
REMARK    4  A    between atoms: C_20  and  O_21
REMARK    5  A    between atoms: O_21  and  C_33
REMARK    6  A    between atoms: C_22  and  N_24
REMARK    7  A    between atoms: C_33  and  C_34
REMARK    8  A    between atoms: C_34  and  O_35
REMARK    9  A    between atoms: O_37  and  C_38
REMARK   10  A    between atoms: O_37  and  P_81
REMARK   11  A    between atoms: C_38  and  C_39
REMARK   12  A    between atoms: C_40  and  S_41
REMARK   13  A    between atoms: S_41  and  P_54
REMARK   14  A    between atoms: C_42  and  O_43
REMARK   15  A    between atoms: O_43  and  C_58
REMARK   16  A    between atoms: C_44  and  N_46
REMARK   17  A    between atoms: C_58  and  C_59
REMARK   18  A    between atoms: C_59  and  O_60
REMARK   19  A    between atoms: O_62  and  C_63
REMARK   20  A    between atoms: O_62  and  P_105
REMARK   21  A    between atoms: C_63  and  C_64
REMARK   22  A    between atoms: C_65  and  S_66
REMARK   23  A    between atoms: S_66  and  P_81
REMARK   24  A    between atoms: C_67  and  O_68
REMARK   25  A    between atoms: O_68  and  C_84
REMARK   26  A    between atoms: C_69  and  N_71
REMARK   27  A    between atoms: C_84  and  C_85
REMARK   28  A    between atoms: C_85  and  O_86
REMARK   29  A    between atoms: O_88  and  C_89
REMARK   30  A    between atoms: O_88  and  P_133
REMARK   31  A    between atoms: C_89  and  C_90
REMARK   32  A    between atoms: C_91  and  S_92
REMARK   33  A    between atoms: S_92  and  P_105
REMARK   34  A    between atoms: C_93  and  O_94
REMARK   35  A    between atoms: O_94  and  C_109
REMARK   36  A    between atoms: C_95  and  N_97
REMARK   37  A    between atoms: C_109  and  C_110
REMARK   38  A    between atoms: C_110  and  O_111
REMARK   39  A    between atoms: O_113  and  C_114
REMARK   40  A    between atoms: O_113  and  P_156
REMARK   41  A    between atoms: C_114  and  C_115
REMARK   42  A    between atoms: C_116  and  S_117
REMARK   43  A    between atoms: S_117  and  P_133
REMARK   44  A    between atoms: C_118  and  O_119
REMARK   45  A    between atoms: O_119  and  C_136
REMARK   46  A    between atoms: C_120  and  N_122
REMARK   47  A    between atoms: C_136  and  C_137
REMARK   48  A    between atoms: C_137  and  O_138
REMARK   49  A    between atoms: O_140  and  C_141
REMARK   50  A    between atoms: O_140  and  P_177
REMARK   51  A    between atoms: C_141  and  C_142
REMARK   52  A    between atoms: C_143  and  S_144
REMARK   53  A    between atoms: S_144  and  P_156
REMARK   54  A    between atoms: C_146  and  N_148
REMARK   55  A    between atoms: O_160  and  C_161
REMARK   56  A    between atoms: O_160  and  P_197
REMARK   57  A    between atoms: C_161  and  C_162
REMARK   58  A    between atoms: C_163  and  S_164
REMARK   59  A    between atoms: S_164  and  P_177
REMARK   60  A    between atoms: C_166  and  N_168
REMARK   61  A    between atoms: O_180  and  C_181
REMARK   62  A    between atoms: O_180  and  P_216
REMARK   63  A    between atoms: C_181  and  C_182
REMARK   64  A    between atoms: C_183  and  S_184
REMARK   65  A    between atoms: S_184  and  P_197
REMARK   66  A    between atoms: C_186  and  N_188
REMARK   67  A    between atoms: O_200  and  C_201
REMARK   68  A    between atoms: O_200  and  P_239
REMARK   69  A    between atoms: C_201  and  C_202
REMARK   70  A    between atoms: C_203  and  S_204
REMARK   71  A    between atoms: S_204  and  P_216
REMARK   72  A    between atoms: C_206  and  N_208
REMARK   73  A    between atoms: O_220  and  C_221
REMARK   74  A    between atoms: O_220  and  P_259
REMARK   75  A    between atoms: C_221  and  C_222
REMARK   76  A    between atoms: C_223  and  S_224
REMARK   77  A    between atoms: S_224  and  P_239
REMARK   78  A    between atoms: C_226  and  N_228
REMARK   79  A    between atoms: O_242  and  C_243
REMARK   80  A    between atoms: O_242  and  P_278
REMARK   81  A    between atoms: C_243  and  C_244
REMARK   82  A    between atoms: C_245  and  S_246
REMARK   83  A    between atoms: S_246  and  P_259
REMARK   84  A    between atoms: C_248  and  N_250
REMARK   85  A    between atoms: O_262  and  C_263
REMARK   86  A    between atoms: O_262  and  P_299
REMARK   87  A    between atoms: C_263  and  C_264
REMARK   88  A    between atoms: C_265  and  S_266
REMARK   89  A    between atoms: S_266  and  P_278
REMARK   90  A    between atoms: C_268  and  N_270
REMARK   91  A    between atoms: O_282  and  C_283
REMARK   92  A    between atoms: O_282  and  P_321
REMARK   93  A    between atoms: C_283  and  C_284
REMARK   94  A    between atoms: C_285  and  S_286
REMARK   95  A    between atoms: S_286  and  P_299
REMARK   96  A    between atoms: C_288  and  N_290
REMARK   97  A    between atoms: O_302  and  C_303
REMARK   98  A    between atoms: O_302  and  P_342
REMARK   99  A    between atoms: C_303  and  C_304
REMARK  100  A    between atoms: C_305  and  S_306
REMARK  101  A    between atoms: S_306  and  P_321
REMARK  102  A    between atoms: C_308  and  N_310
REMARK  103  A    between atoms: O_324  and  C_325
REMARK  104  A    between atoms: O_324  and  P_362
REMARK  105  A    between atoms: C_325  and  C_326
REMARK  106  A    between atoms: C_327  and  S_328
REMARK  107  A    between atoms: S_328  and  P_342
REMARK  108  A    between atoms: C_330  and  N_332
REMARK  109  A    between atoms: O_345  and  C_346
REMARK  110  A    between atoms: O_345  and  P_387
REMARK  111  A    between atoms: C_346  and  C_347
REMARK  112  A    between atoms: C_348  and  S_349
REMARK  113  A    between atoms: S_349  and  P_362
REMARK  114  A    between atoms: C_350  and  O_351
REMARK  115  A    between atoms: O_351  and  C_366
REMARK  116  A    between atoms: C_352  and  N_354
REMARK  117  A    between atoms: C_366  and  C_367
REMARK  118  A    between atoms: C_367  and  O_368
REMARK  119  A    between atoms: O_370  and  C_371
REMARK  120  A    between atoms: O_370  and  P_412
REMARK  121  A    between atoms: C_371  and  C_372
REMARK  122  A    between atoms: C_373  and  S_374
REMARK  123  A    between atoms: S_374  and  P_387
REMARK  124  A    between atoms: C_375  and  O_376
REMARK  125  A    between atoms: O_376  and  C_391
REMARK  126  A    between atoms: C_377  and  N_379
REMARK  127  A    between atoms: C_391  and  C_392
REMARK  128  A    between atoms: C_392  and  O_393
REMARK  129  A    between atoms: O_395  and  C_396
REMARK  130  A    between atoms: O_395  and  P_437
REMARK  131  A    between atoms: C_396  and  C_397
REMARK  132  A    between atoms: C_398  and  S_399
REMARK  133  A    between atoms: S_399  and  P_412
REMARK  134  A    between atoms: C_400  and  O_401
REMARK  135  A    between atoms: O_401  and  C_416
REMARK  136  A    between atoms: C_402  and  N_404
REMARK  137  A    between atoms: C_416  and  C_417
REMARK  138  A    between atoms: C_417  and  O_418
REMARK  139  A    between atoms: O_420  and  C_421
REMARK  140  A    between atoms: O_420  and  P_465
REMARK  141  A    between atoms: C_421  and  C_422
REMARK  142  A    between atoms: C_423  and  S_424
REMARK  143  A    between atoms: S_424  and  P_437
REMARK  144  A    between atoms: C_425  and  O_426
REMARK  145  A    between atoms: O_426  and  C_441
REMARK  146  A    between atoms: C_427  and  N_429
REMARK  147  A    between atoms: C_441  and  C_442
REMARK  148  A    between atoms: C_442  and  O_443
REMARK  149  A    between atoms: C_446  and  C_447
REMARK  150  A    between atoms: C_448  and  S_449
REMARK  151  A    between atoms: S_449  and  P_465
REMARK  152  A    between atoms: C_450  and  O_451
REMARK  153  A    between atoms: O_451  and  C_468
REMARK  154  A    between atoms: C_452  and  N_454
REMARK  155  A    between atoms: C_468  and  C_469
REMARK  156  A    between atoms: C_469  and  O_470
REMARK                            x       y       z     vdW  Elec       q    Type
REMARK                         _______ _______ _______ _____ _____    ______ ____
ROOT
ATOM      1 NA   UNL     1      17.987 -21.318   0.000  0.00  0.00    +0.000 Na
ENDROOT
TORSDOF 0
REMARK  Name = 
REMARK  156 active torsions:
REMARK  status: ('A' for Active; 'I' for Inactive)
REMARK    1  A    between atoms: O_15  and  C_16
REMARK    2  A    between atoms: O_15  and  P_54
REMARK    3  A    between atoms: C_16  and  C_17
REMARK    4  A    between atoms: C_20  and  O_21
REMARK    5  A    between atoms: O_21  and  C_33
REMARK    6  A    between atoms: C_22  and  N_24
REMARK    7  A    between atoms: C_33  and  C_34
REMARK    8  A    between atoms: C_34  and  O_35
REMARK    9  A    between atoms: O_37  and  C_38
REMARK   10  A    between atoms: O_37  and  P_81
REMARK   11  A    between atoms: C_38  and  C_39
REMARK   12  A    between atoms: C_40  and  S_41
REMARK   13  A    between atoms: S_41  and  P_54
REMARK   14  A    between atoms: C_42  and  O_43
REMARK   15  A    between atoms: O_43  and  C_58
REMARK   16  A    between atoms: C_44  and  N_46
REMARK   17  A    between atoms: C_58  and  C_59
REMARK   18  A    between atoms: C_59  and  O_60
REMARK   19  A    between atoms: O_62  and  C_63
REMARK   20  A    between atoms: O_62  and  P_105
REMARK   21  A    between atoms: C_63  and  C_64
REMARK   22  A    between atoms: C_65  and  S_66
REMARK   23  A    between atoms: S_66  and  P_81
REMARK   24  A    between atoms: C_67  and  O_68
REMARK   25  A    between atoms: O_68  and  C_84
REMARK   26  A    between atoms: C_69  and  N_71
REMARK   27  A    between atoms: C_84  and  C_85
REMARK   28  A    between atoms: C_85  and  O_86
REMARK   29  A    between atoms: O_88  and  C_89
REMARK   30  A    between atoms: O_88  and  P_133
REMARK   31  A    between atoms: C_89  and  C_90
REMARK   32  A    between atoms: C_91  and  S_92
REMARK   33  A    between atoms: S_92  and  P_105
REMARK   34  A    between atoms: C_93  and  O_94
REMARK   35  A    between atoms: O_94  and  C_109
REMARK   36  A    between atoms: C_95  and  N_97
REMARK   37  A    between atoms: C_109  and  C_110
REMARK   38  A    between atoms: C_110  and  O_111
REMARK   39  A    between atoms: O_113  and  C_114
REMARK   40  A    between atoms: O_113  and  P_156
REMARK   41  A    between atoms: C_114  and  C_115
REMARK   42  A    between atoms: C_116  and  S_117
REMARK   43  A    between atoms: S_117  and  P_133
REMARK   44  A    between atoms: C_118  and  O_119
REMARK   45  A    between atoms: O_119  and  C_136
REMARK   46  A    between atoms: C_120  and  N_122
REMARK   47  A    between atoms: C_136  and  C_137
REMARK   48  A    between atoms: C_137  and  O_138
REMARK   49  A    between atoms: O_140  and  C_141
REMARK   50  A    between atoms: O_140  and  P_177
REMARK   51  A    between atoms: C_141  and  C_142
REMARK   52  A    between atoms: C_143  and  S_144
REMARK   53  A    between atoms: S_144  and  P_156
REMARK   54  A    between atoms: C_146  and  N_148
REMARK   55  A    between atoms: O_160  and  C_161
REMARK   56  A    between atoms: O_160  and  P_197
REMARK   57  A    between atoms: C_161  and  C_162
REMARK   58  A    between atoms: C_163  and  S_164
REMARK   59  A    between atoms: S_164  and  P_177
REMARK   60  A    between atoms: C_166  and  N_168
REMARK   61  A    between atoms: O_180  and  C_181
REMARK   62  A    between atoms: O_180  and  P_216
REMARK   63  A    between atoms: C_181  and  C_182
REMARK   64  A    between atoms: C_183  and  S_184
REMARK   65  A    between atoms: S_184  and  P_197
REMARK   66  A    between atoms: C_186  and  N_188
REMARK   67  A    between atoms: O_200  and  C_201
REMARK   68  A    between atoms: O_200  and  P_239
REMARK   69  A    between atoms: C_201  and  C_202
REMARK   70  A    between atoms: C_203  and  S_204
REMARK   71  A    between atoms: S_204  and  P_216
REMARK   72  A    between atoms: C_206  and  N_208
REMARK   73  A    between atoms: O_220  and  C_221
REMARK   74  A    between atoms: O_220  and  P_259
REMARK   75  A    between atoms: C_221  and  C_222
REMARK   76  A    between atoms: C_223  and  S_224
REMARK   77  A    between atoms: S_224  and  P_239
REMARK   78  A    between atoms: C_226  and  N_228
REMARK   79  A    between atoms: O_242  and  C_243
REMARK   80  A    between atoms: O_242  and  P_278
REMARK   81  A    between atoms: C_243  and  C_244
REMARK   82  A    between atoms: C_245  and  S_246
REMARK   83  A    between atoms: S_246  and  P_259
REMARK   84  A    between atoms: C_248  and  N_250
REMARK   85  A    between atoms: O_262  and  C_263
REMARK   86  A    between atoms: O_262  and  P_299
REMARK   87  A    between atoms: C_263  and  C_264
REMARK   88  A    between atoms: C_265  and  S_266
REMARK   89  A    between atoms: S_266  and  P_278
REMARK   90  A    between atoms: C_268  and  N_270
REMARK   91  A    between atoms: O_282  and  C_283
REMARK   92  A    between atoms: O_282  and  P_321
REMARK   93  A    between atoms: C_283  and  C_284
REMARK   94  A    between atoms: C_285  and  S_286
REMARK   95  A    between atoms: S_286  and  P_299
REMARK   96  A    between atoms: C_288  and  N_290
REMARK   97  A    between atoms: O_302  and  C_303
REMARK   98  A    between atoms: O_302  and  P_342
REMARK   99  A    between atoms: C_303  and  C_304
REMARK  100  A    between atoms: C_305  and  S_306
REMARK  101  A    between atoms: S_306  and  P_321
REMARK  102  A    between atoms: C_308  and  N_310
REMARK  103  A    between atoms: O_324  and  C_325
REMARK  104  A    between atoms: O_324  and  P_362
REMARK  105  A    between atoms: C_325  and  C_326
REMARK  106  A    between atoms: C_327  and  S_328
REMARK  107  A    between atoms: S_328  and  P_342
REMARK  108  A    between atoms: C_330  and  N_332
REMARK  109  A    between atoms: O_345  and  C_346
REMARK  110  A    between atoms: O_345  and  P_387
REMARK  111  A    between atoms: C_346  and  C_347
REMARK  112  A    between atoms: C_348  and  S_349
REMARK  113  A    between atoms: S_349  and  P_362
REMARK  114  A    between atoms: C_350  and  O_351
REMARK  115  A    between atoms: O_351  and  C_366
REMARK  116  A    between atoms: C_352  and  N_354
REMARK  117  A    between atoms: C_366  and  C_367
REMARK  118  A    between atoms: C_367  and  O_368
REMARK  119  A    between atoms: O_370  and  C_371
REMARK  120  A    between atoms: O_370  and  P_412
REMARK  121  A    between atoms: C_371  and  C_372
REMARK  122  A    between atoms: C_373  and  S_374
REMARK  123  A    between atoms: S_374  and  P_387
REMARK  124  A    between atoms: C_375  and  O_376
REMARK  125  A    between atoms: O_376  and  C_391
REMARK  126  A    between atoms: C_377  and  N_379
REMARK  127  A    between atoms: C_391  and  C_392
REMARK  128  A    between atoms: C_392  and  O_393
REMARK  129  A    between atoms: O_395  and  C_396
REMARK  130  A    between atoms: O_395  and  P_437
REMARK  131  A    between atoms: C_396  and  C_397
REMARK  132  A    between atoms: C_398  and  S_399
REMARK  133  A    between atoms: S_399  and  P_412
REMARK  134  A    between atoms: C_400  and  O_401
REMARK  135  A    between atoms: O_401  and  C_416
REMARK  136  A    between atoms: C_402  and  N_404
REMARK  137  A    between atoms: C_416  and  C_417
REMARK  138  A    between atoms: C_417  and  O_418
REMARK  139  A    between atoms: O_420  and  C_421
REMARK  140  A    between atoms: O_420  and  P_465
REMARK  141  A    between atoms: C_421  and  C_422
REMARK  142  A    between atoms: C_423  and  S_424
REMARK  143  A    between atoms: S_424  and  P_437
REMARK  144  A    between atoms: C_425  and  O_426
REMARK  145  A    between atoms: O_426  and  C_441
REMARK  146  A    between atoms: C_427  and  N_429
REMARK  147  A    between atoms: C_441  and  C_442
REMARK  148  A    between atoms: C_442  and  O_443
REMARK  149  A    between atoms: C_446  and  C_447
REMARK  150  A    between atoms: C_448  and  S_449
REMARK  151  A    between atoms: S_449  and  P_465
REMARK  152  A    between atoms: C_450  and  O_451
REMARK  153  A    between atoms: O_451  and  C_468
REMARK  154  A    between atoms: C_452  and  N_454
REMARK  155  A    between atoms: C_468  and  C_469
REMARK  156  A    between atoms: C_469  and  O_470
REMARK                            x       y       z     vdW  Elec       q    Type
REMARK                         _______ _______ _______ _____ _____    ______ ____
ROOT
ATOM      1 NA   UNL     1      15.404 -21.064   0.000  0.00  0.00    +0.000 Na
ENDROOT
TORSDOF 0
REMARK  Name = 
REMARK  156 active torsions:
REMARK  status: ('A' for Active; 'I' for Inactive)
REMARK    1  A    between atoms: O_15  and  C_16
REMARK    2  A    between atoms: O_15  and  P_54
REMARK    3  A    between atoms: C_16  and  C_17
REMARK    4  A    between atoms: C_20  and  O_21
REMARK    5  A    between atoms: O_21  and  C_33
REMARK    6  A    between atoms: C_22  and  N_24
REMARK    7  A    between atoms: C_33  and  C_34
REMARK    8  A    between atoms: C_34  and  O_35
REMARK    9  A    between atoms: O_37  and  C_38
REMARK   10  A    between atoms: O_37  and  P_81
REMARK   11  A    between atoms: C_38  and  C_39
REMARK   12  A    between atoms: C_40  and  S_41
REMARK   13  A    between atoms: S_41  and  P_54
REMARK   14  A    between atoms: C_42  and  O_43
REMARK   15  A    between atoms: O_43  and  C_58
REMARK   16  A    between atoms: C_44  and  N_46
REMARK   17  A    between atoms: C_58  and  C_59
REMARK   18  A    between atoms: C_59  and  O_60
REMARK   19  A    between atoms: O_62  and  C_63
REMARK   20  A    between atoms: O_62  and  P_105
REMARK   21  A    between atoms: C_63  and  C_64
REMARK   22  A    between atoms: C_65  and  S_66
REMARK   23  A    between atoms: S_66  and  P_81
REMARK   24  A    between atoms: C_67  and  O_68
REMARK   25  A    between atoms: O_68  and  C_84
REMARK   26  A    between atoms: C_69  and  N_71
REMARK   27  A    between atoms: C_84  and  C_85
REMARK   28  A    between atoms: C_85  and  O_86
REMARK   29  A    between atoms: O_88  and  C_89
REMARK   30  A    between atoms: O_88  and  P_133
REMARK   31  A    between atoms: C_89  and  C_90
REMARK   32  A    between atoms: C_91  and  S_92
REMARK   33  A    between atoms: S_92  and  P_105
REMARK   34  A    between atoms: C_93  and  O_94
REMARK   35  A    between atoms: O_94  and  C_109
REMARK   36  A    between atoms: C_95  and  N_97
REMARK   37  A    between atoms: C_109  and  C_110
REMARK   38  A    between atoms: C_110  and  O_111
REMARK   39  A    between atoms: O_113  and  C_114
REMARK   40  A    between atoms: O_113  and  P_156
REMARK   41  A    between atoms: C_114  and  C_115
REMARK   42  A    between atoms: C_116  and  S_117
REMARK   43  A    between atoms: S_117  and  P_133
REMARK   44  A    between atoms: C_118  and  O_119
REMARK   45  A    between atoms: O_119  and  C_136
REMARK   46  A    between atoms: C_120  and  N_122
REMARK   47  A    between atoms: C_136  and  C_137
REMARK   48  A    between atoms: C_137  and  O_138
REMARK   49  A    between atoms: O_140  and  C_141
REMARK   50  A    between atoms: O_140  and  P_177
REMARK   51  A    between atoms: C_141  and  C_142
REMARK   52  A    between atoms: C_143  and  S_144
REMARK   53  A    between atoms: S_144  and  P_156
REMARK   54  A    between atoms: C_146  and  N_148
REMARK   55  A    between atoms: O_160  and  C_161
REMARK   56  A    between atoms: O_160  and  P_197
REMARK   57  A    between atoms: C_161  and  C_162
REMARK   58  A    between atoms: C_163  and  S_164
REMARK   59  A    between atoms: S_164  and  P_177
REMARK   60  A    between atoms: C_166  and  N_168
REMARK   61  A    between atoms: O_180  and  C_181
REMARK   62  A    between atoms: O_180  and  P_216
REMARK   63  A    between atoms: C_181  and  C_182
REMARK   64  A    between atoms: C_183  and  S_184
REMARK   65  A    between atoms: S_184  and  P_197
REMARK   66  A    between atoms: C_186  and  N_188
REMARK   67  A    between atoms: O_200  and  C_201
REMARK   68  A    between atoms: O_200  and  P_239
REMARK   69  A    between atoms: C_201  and  C_202
REMARK   70  A    between atoms: C_203  and  S_204
REMARK   71  A    between atoms: S_204  and  P_216
REMARK   72  A    between atoms: C_206  and  N_208
REMARK   73  A    between atoms: O_220  and  C_221
REMARK   74  A    between atoms: O_220  and  P_259
REMARK   75  A    between atoms: C_221  and  C_222
REMARK   76  A    between atoms: C_223  and  S_224
REMARK   77  A    between atoms: S_224  and  P_239
REMARK   78  A    between atoms: C_226  and  N_228
REMARK   79  A    between atoms: O_242  and  C_243
REMARK   80  A    between atoms: O_242  and  P_278
REMARK   81  A    between atoms: C_243  and  C_244
REMARK   82  A    between atoms: C_245  and  S_246
REMARK   83  A    between atoms: S_246  and  P_259
REMARK   84  A    between atoms: C_248  and  N_250
REMARK   85  A    between atoms: O_262  and  C_263
REMARK   86  A    between atoms: O_262  and  P_299
REMARK   87  A    between atoms: C_263  and  C_264
REMARK   88  A    between atoms: C_265  and  S_266
REMARK   89  A    between atoms: S_266  and  P_278
REMARK   90  A    between atoms: C_268  and  N_270
REMARK   91  A    between atoms: O_282  and  C_283
REMARK   92  A    between atoms: O_282  and  P_321
REMARK   93  A    between atoms: C_283  and  C_284
REMARK   94  A    between atoms: C_285  and  S_286
REMARK   95  A    between atoms: S_286  and  P_299
REMARK   96  A    between atoms: C_288  and  N_290
REMARK   97  A    between atoms: O_302  and  C_303
REMARK   98  A    between atoms: O_302  and  P_342
REMARK   99  A    between atoms: C_303  and  C_304
REMARK  100  A    between atoms: C_305  and  S_306
REMARK  101  A    between atoms: S_306  and  P_321
REMARK  102  A    between atoms: C_308  and  N_310
REMARK  103  A    between atoms: O_324  and  C_325
REMARK  104  A    between atoms: O_324  and  P_362
REMARK  105  A    between atoms: C_325  and  C_326
REMARK  106  A    between atoms: C_327  and  S_328
REMARK  107  A    between atoms: S_328  and  P_342
REMARK  108  A    between atoms: C_330  and  N_332
REMARK  109  A    between atoms: O_345  and  C_346
REMARK  110  A    between atoms: O_345  and  P_387
REMARK  111  A    between atoms: C_346  and  C_347
REMARK  112  A    between atoms: C_348  and  S_349
REMARK  113  A    between atoms: S_349  and  P_362
REMARK  114  A    between atoms: C_350  and  O_351
REMARK  115  A    between atoms: O_351  and  C_366
REMARK  116  A    between atoms: C_352  and  N_354
REMARK  117  A    between atoms: C_366  and  C_367
REMARK  118  A    between atoms: C_367  and  O_368
REMARK  119  A    between atoms: O_370  and  C_371
REMARK  120  A    between atoms: O_370  and  P_412
REMARK  121  A    between atoms: C_371  and  C_372
REMARK  122  A    between atoms: C_373  and  S_374
REMARK  123  A    between atoms: S_374  and  P_387
REMARK  124  A    between atoms: C_375  and  O_376
REMARK  125  A    between atoms: O_376  and  C_391
REMARK  126  A    between atoms: C_377  and  N_379
REMARK  127  A    between atoms: C_391  and  C_392
REMARK  128  A    between atoms: C_392  and  O_393
REMARK  129  A    between atoms: O_395  and  C_396
REMARK  130  A    between atoms: O_395  and  P_437
REMARK  131  A    between atoms: C_396  and  C_397
REMARK  132  A    between atoms: C_398  and  S_399
REMARK  133  A    between atoms: S_399  and  P_412
REMARK  134  A    between atoms: C_400  and  O_401
REMARK  135  A    between atoms: O_401  and  C_416
REMARK  136  A    between atoms: C_402  and  N_404
REMARK  137  A    between atoms: C_416  and  C_417
REMARK  138  A    between atoms: C_417  and  O_418
REMARK  139  A    between atoms: O_420  and  C_421
REMARK  140  A    between atoms: O_420  and  P_465
REMARK  141  A    between atoms: C_421  and  C_422
REMARK  142  A    between atoms: C_423  and  S_424
REMARK  143  A    between atoms: S_424  and  P_437
REMARK  144  A    between atoms: C_425  and  O_426
REMARK  145  A    between atoms: O_426  and  C_441
REMARK  146  A    between atoms: C_427  and  N_429
REMARK  147  A    between atoms: C_441  and  C_442
REMARK  148  A    between atoms: C_442  and  O_443
REMARK  149  A    between atoms: C_446  and  C_447
REMARK  150  A    between atoms: C_448  and  S_449
REMARK  151  A    between atoms: S_449  and  P_465
REMARK  152  A    between atoms: C_450  and  O_451
REMARK  153  A    between atoms: O_451  and  C_468
REMARK  154  A    between atoms: C_452  and  N_454
REMARK  155  A    between atoms: C_468  and  C_469
REMARK  156  A    between atoms: C_469  and  O_470
REMARK                            x       y       z     vdW  Elec       q    Type
REMARK                         _______ _______ _______ _____ _____    ______ ____
ROOT
ATOM      1 NA   UNL     1       7.002 -18.907   0.000  0.00  0.00    +0.000 Na
ENDROOT
TORSDOF 0
REMARK  Name = 
REMARK  156 active torsions:
REMARK  status: ('A' for Active; 'I' for Inactive)
REMARK    1  A    between atoms: O_15  and  C_16
REMARK    2  A    between atoms: O_15  and  P_54
REMARK    3  A    between atoms: C_16  and  C_17
REMARK    4  A    between atoms: C_20  and  O_21
REMARK    5  A    between atoms: O_21  and  C_33
REMARK    6  A    between atoms: C_22  and  N_24
REMARK    7  A    between atoms: C_33  and  C_34
REMARK    8  A    between atoms: C_34  and  O_35
REMARK    9  A    between atoms: O_37  and  C_38
REMARK   10  A    between atoms: O_37  and  P_81
REMARK   11  A    between atoms: C_38  and  C_39
REMARK   12  A    between atoms: C_40  and  S_41
REMARK   13  A    between atoms: S_41  and  P_54
REMARK   14  A    between atoms: C_42  and  O_43
REMARK   15  A    between atoms: O_43  and  C_58
REMARK   16  A    between atoms: C_44  and  N_46
REMARK   17  A    between atoms: C_58  and  C_59
REMARK   18  A    between atoms: C_59  and  O_60
REMARK   19  A    between atoms: O_62  and  C_63
REMARK   20  A    between atoms: O_62  and  P_105
REMARK   21  A    between atoms: C_63  and  C_64
REMARK   22  A    between atoms: C_65  and  S_66
REMARK   23  A    between atoms: S_66  and  P_81
REMARK   24  A    between atoms: C_67  and  O_68
REMARK   25  A    between atoms: O_68  and  C_84
REMARK   26  A    between atoms: C_69  and  N_71
REMARK   27  A    between atoms: C_84  and  C_85
REMARK   28  A    between atoms: C_85  and  O_86
REMARK   29  A    between atoms: O_88  and  C_89
REMARK   30  A    between atoms: O_88  and  P_133
REMARK   31  A    between atoms: C_89  and  C_90
REMARK   32  A    between atoms: C_91  and  S_92
REMARK   33  A    between atoms: S_92  and  P_105
REMARK   34  A    between atoms: C_93  and  O_94
REMARK   35  A    between atoms: O_94  and  C_109
REMARK   36  A    between atoms: C_95  and  N_97
REMARK   37  A    between atoms: C_109  and  C_110
REMARK   38  A    between atoms: C_110  and  O_111
REMARK   39  A    between atoms: O_113  and  C_114
REMARK   40  A    between atoms: O_113  and  P_156
REMARK   41  A    between atoms: C_114  and  C_115
REMARK   42  A    between atoms: C_116  and  S_117
REMARK   43  A    between atoms: S_117  and  P_133
REMARK   44  A    between atoms: C_118  and  O_119
REMARK   45  A    between atoms: O_119  and  C_136
REMARK   46  A    between atoms: C_120  and  N_122
REMARK   47  A    between atoms: C_136  and  C_137
REMARK   48  A    between atoms: C_137  and  O_138
REMARK   49  A    between atoms: O_140  and  C_141
REMARK   50  A    between atoms: O_140  and  P_177
REMARK   51  A    between atoms: C_141  and  C_142
REMARK   52  A    between atoms: C_143  and  S_144
REMARK   53  A    between atoms: S_144  and  P_156
REMARK   54  A    between atoms: C_146  and  N_148
REMARK   55  A    between atoms: O_160  and  C_161
REMARK   56  A    between atoms: O_160  and  P_197
REMARK   57  A    between atoms: C_161  and  C_162
REMARK   58  A    between atoms: C_163  and  S_164
REMARK   59  A    between atoms: S_164  and  P_177
REMARK   60  A    between atoms: C_166  and  N_168
REMARK   61  A    between atoms: O_180  and  C_181
REMARK   62  A    between atoms: O_180  and  P_216
REMARK   63  A    between atoms: C_181  and  C_182
REMARK   64  A    between atoms: C_183  and  S_184
REMARK   65  A    between atoms: S_184  and  P_197
REMARK   66  A    between atoms: C_186  and  N_188
REMARK   67  A    between atoms: O_200  and  C_201
REMARK   68  A    between atoms: O_200  and  P_239
REMARK   69  A    between atoms: C_201  and  C_202
REMARK   70  A    between atoms: C_203  and  S_204
REMARK   71  A    between atoms: S_204  and  P_216
REMARK   72  A    between atoms: C_206  and  N_208
REMARK   73  A    between atoms: O_220  and  C_221
REMARK   74  A    between atoms: O_220  and  P_259
REMARK   75  A    between atoms: C_221  and  C_222
REMARK   76  A    between atoms: C_223  and  S_224
REMARK   77  A    between atoms: S_224  and  P_239
REMARK   78  A    between atoms: C_226  and  N_228
REMARK   79  A    between atoms: O_242  and  C_243
REMARK   80  A    between atoms: O_242  and  P_278
REMARK   81  A    between atoms: C_243  and  C_244
REMARK   82  A    between atoms: C_245  and  S_246
REMARK   83  A    between atoms: S_246  and  P_259
REMARK   84  A    between atoms: C_248  and  N_250
REMARK   85  A    between atoms: O_262  and  C_263
REMARK   86  A    between atoms: O_262  and  P_299
REMARK   87  A    between atoms: C_263  and  C_264
REMARK   88  A    between atoms: C_265  and  S_266
REMARK   89  A    between atoms: S_266  and  P_278
REMARK   90  A    between atoms: C_268  and  N_270
REMARK   91  A    between atoms: O_282  and  C_283
REMARK   92  A    between atoms: O_282  and  P_321
REMARK   93  A    between atoms: C_283  and  C_284
REMARK   94  A    between atoms: C_285  and  S_286
REMARK   95  A    between atoms: S_286  and  P_299
REMARK   96  A    between atoms: C_288  and  N_290
REMARK   97  A    between atoms: O_302  and  C_303
REMARK   98  A    between atoms: O_302  and  P_342
REMARK   99  A    between atoms: C_303  and  C_304
REMARK  100  A    between atoms: C_305  and  S_306
REMARK  101  A    between atoms: S_306  and  P_321
REMARK  102  A    between atoms: C_308  and  N_310
REMARK  103  A    between atoms: O_324  and  C_325
REMARK  104  A    between atoms: O_324  and  P_362
REMARK  105  A    between atoms: C_325  and  C_326
REMARK  106  A    between atoms: C_327  and  S_328
REMARK  107  A    between atoms: S_328  and  P_342
REMARK  108  A    between atoms: C_330  and  N_332
REMARK  109  A    between atoms: O_345  and  C_346
REMARK  110  A    between atoms: O_345  and  P_387
REMARK  111  A    between atoms: C_346  and  C_347
REMARK  112  A    between atoms: C_348  and  S_349
REMARK  113  A    between atoms: S_349  and  P_362
REMARK  114  A    between atoms: C_350  and  O_351
REMARK  115  A    between atoms: O_351  and  C_366
REMARK  116  A    between atoms: C_352  and  N_354
REMARK  117  A    between atoms: C_366  and  C_367
REMARK  118  A    between atoms: C_367  and  O_368
REMARK  119  A    between atoms: O_370  and  C_371
REMARK  120  A    between atoms: O_370  and  P_412
REMARK  121  A    between atoms: C_371  and  C_372
REMARK  122  A    between atoms: C_373  and  S_374
REMARK  123  A    between atoms: S_374  and  P_387
REMARK  124  A    between atoms: C_375  and  O_376
REMARK  125  A    between atoms: O_376  and  C_391
REMARK  126  A    between atoms: C_377  and  N_379
REMARK  127  A    between atoms: C_391  and  C_392
REMARK  128  A    between atoms: C_392  and  O_393
REMARK  129  A    between atoms: O_395  and  C_396
REMARK  130  A    between atoms: O_395  and  P_437
REMARK  131  A    between atoms: C_396  and  C_397
REMARK  132  A    between atoms: C_398  and  S_399
REMARK  133  A    between atoms: S_399  and  P_412
REMARK  134  A    between atoms: C_400  and  O_401
REMARK  135  A    between atoms: O_401  and  C_416
REMARK  136  A    between atoms: C_402  and  N_404
REMARK  137  A    between atoms: C_416  and  C_417
REMARK  138  A    between atoms: C_417  and  O_418
REMARK  139  A    between atoms: O_420  and  C_421
REMARK  140  A    between atoms: O_420  and  P_465
REMARK  141  A    between atoms: C_421  and  C_422
REMARK  142  A    between atoms: C_423  and  S_424
REMARK  143  A    between atoms: S_424  and  P_437
REMARK  144  A    between atoms: C_425  and  O_426
REMARK  145  A    between atoms: O_426  and  C_441
REMARK  146  A    between atoms: C_427  and  N_429
REMARK  147  A    between atoms: C_441  and  C_442
REMARK  148  A    between atoms: C_442  and  O_443
REMARK  149  A    between atoms: C_446  and  C_447
REMARK  150  A    between atoms: C_448  and  S_449
REMARK  151  A    between atoms: S_449  and  P_465
REMARK  152  A    between atoms: C_450  and  O_451
REMARK  153  A    between atoms: O_451  and  C_468
REMARK  154  A    between atoms: C_452  and  N_454
REMARK  155  A    between atoms: C_468  and  C_469
REMARK  156  A    between atoms: C_469  and  O_470
REMARK                            x       y       z     vdW  Elec       q    Type
REMARK                         _______ _______ _______ _____ _____    ______ ____
ROOT
ATOM      1 NA   UNL     1       4.575 -18.873   0.000  0.00  0.00    +0.000 Na
ENDROOT
TORSDOF 0
REMARK  Name = 
REMARK  156 active torsions:
REMARK  status: ('A' for Active; 'I' for Inactive)
REMARK    1  A    between atoms: O_15  and  C_16
REMARK    2  A    between atoms: O_15  and  P_54
REMARK    3  A    between atoms: C_16  and  C_17
REMARK    4  A    between atoms: C_20  and  O_21
REMARK    5  A    between atoms: O_21  and  C_33
REMARK    6  A    between atoms: C_22  and  N_24
REMARK    7  A    between atoms: C_33  and  C_34
REMARK    8  A    between atoms: C_34  and  O_35
REMARK    9  A    between atoms: O_37  and  C_38
REMARK   10  A    between atoms: O_37  and  P_81
REMARK   11  A    between atoms: C_38  and  C_39
REMARK   12  A    between atoms: C_40  and  S_41
REMARK   13  A    between atoms: S_41  and  P_54
REMARK   14  A    between atoms: C_42  and  O_43
REMARK   15  A    between atoms: O_43  and  C_58
REMARK   16  A    between atoms: C_44  and  N_46
REMARK   17  A    between atoms: C_58  and  C_59
REMARK   18  A    between atoms: C_59  and  O_60
REMARK   19  A    between atoms: O_62  and  C_63
REMARK   20  A    between atoms: O_62  and  P_105
REMARK   21  A    between atoms: C_63  and  C_64
REMARK   22  A    between atoms: C_65  and  S_66
REMARK   23  A    between atoms: S_66  and  P_81
REMARK   24  A    between atoms: C_67  and  O_68
REMARK   25  A    between atoms: O_68  and  C_84
REMARK   26  A    between atoms: C_69  and  N_71
REMARK   27  A    between atoms: C_84  and  C_85
REMARK   28  A    between atoms: C_85  and  O_86
REMARK   29  A    between atoms: O_88  and  C_89
REMARK   30  A    between atoms: O_88  and  P_133
REMARK   31  A    between atoms: C_89  and  C_90
REMARK   32  A    between atoms: C_91  and  S_92
REMARK   33  A    between atoms: S_92  and  P_105
REMARK   34  A    between atoms: C_93  and  O_94
REMARK   35  A    between atoms: O_94  and  C_109
REMARK   36  A    between atoms: C_95  and  N_97
REMARK   37  A    between atoms: C_109  and  C_110
REMARK   38  A    between atoms: C_110  and  O_111
REMARK   39  A    between atoms: O_113  and  C_114
REMARK   40  A    between atoms: O_113  and  P_156
REMARK   41  A    between atoms: C_114  and  C_115
REMARK   42  A    between atoms: C_116  and  S_117
REMARK   43  A    between atoms: S_117  and  P_133
REMARK   44  A    between atoms: C_118  and  O_119
REMARK   45  A    between atoms: O_119  and  C_136
REMARK   46  A    between atoms: C_120  and  N_122
REMARK   47  A    between atoms: C_136  and  C_137
REMARK   48  A    between atoms: C_137  and  O_138
REMARK   49  A    between atoms: O_140  and  C_141
REMARK   50  A    between atoms: O_140  and  P_177
REMARK   51  A    between atoms: C_141  and  C_142
REMARK   52  A    between atoms: C_143  and  S_144
REMARK   53  A    between atoms: S_144  and  P_156
REMARK   54  A    between atoms: C_146  and  N_148
REMARK   55  A    between atoms: O_160  and  C_161
REMARK   56  A    between atoms: O_160  and  P_197
REMARK   57  A    between atoms: C_161  and  C_162
REMARK   58  A    between atoms: C_163  and  S_164
REMARK   59  A    between atoms: S_164  and  P_177
REMARK   60  A    between atoms: C_166  and  N_168
REMARK   61  A    between atoms: O_180  and  C_181
REMARK   62  A    between atoms: O_180  and  P_216
REMARK   63  A    between atoms: C_181  and  C_182
REMARK   64  A    between atoms: C_183  and  S_184
REMARK   65  A    between atoms: S_184  and  P_197
REMARK   66  A    between atoms: C_186  and  N_188
REMARK   67  A    between atoms: O_200  and  C_201
REMARK   68  A    between atoms: O_200  and  P_239
REMARK   69  A    between atoms: C_201  and  C_202
REMARK   70  A    between atoms: C_203  and  S_204
REMARK   71  A    between atoms: S_204  and  P_216
REMARK   72  A    between atoms: C_206  and  N_208
REMARK   73  A    between atoms: O_220  and  C_221
REMARK   74  A    between atoms: O_220  and  P_259
REMARK   75  A    between atoms: C_221  and  C_222
REMARK   76  A    between atoms: C_223  and  S_224
REMARK   77  A    between atoms: S_224  and  P_239
REMARK   78  A    between atoms: C_226  and  N_228
REMARK   79  A    between atoms: O_242  and  C_243
REMARK   80  A    between atoms: O_242  and  P_278
REMARK   81  A    between atoms: C_243  and  C_244
REMARK   82  A    between atoms: C_245  and  S_246
REMARK   83  A    between atoms: S_246  and  P_259
REMARK   84  A    between atoms: C_248  and  N_250
REMARK   85  A    between atoms: O_262  and  C_263
REMARK   86  A    between atoms: O_262  and  P_299
REMARK   87  A    between atoms: C_263  and  C_264
REMARK   88  A    between atoms: C_265  and  S_266
REMARK   89  A    between atoms: S_266  and  P_278
REMARK   90  A    between atoms: C_268  and  N_270
REMARK   91  A    between atoms: O_282  and  C_283
REMARK   92  A    between atoms: O_282  and  P_321
REMARK   93  A    between atoms: C_283  and  C_284
REMARK   94  A    between atoms: C_285  and  S_286
REMARK   95  A    between atoms: S_286  and  P_299
REMARK   96  A    between atoms: C_288  and  N_290
REMARK   97  A    between atoms: O_302  and  C_303
REMARK   98  A    between atoms: O_302  and  P_342
REMARK   99  A    between atoms: C_303  and  C_304
REMARK  100  A    between atoms: C_305  and  S_306
REMARK  101  A    between atoms: S_306  and  P_321
REMARK  102  A    between atoms: C_308  and  N_310
REMARK  103  A    between atoms: O_324  and  C_325
REMARK  104  A    between atoms: O_324  and  P_362
REMARK  105  A    between atoms: C_325  and  C_326
REMARK  106  A    between atoms: C_327  and  S_328
REMARK  107  A    between atoms: S_328  and  P_342
REMARK  108  A    between atoms: C_330  and  N_332
REMARK  109  A    between atoms: O_345  and  C_346
REMARK  110  A    between atoms: O_345  and  P_387
REMARK  111  A    between atoms: C_346  and  C_347
REMARK  112  A    between atoms: C_348  and  S_349
REMARK  113  A    between atoms: S_349  and  P_362
REMARK  114  A    between atoms: C_350  and  O_351
REMARK  115  A    between atoms: O_351  and  C_366
REMARK  116  A    between atoms: C_352  and  N_354
REMARK  117  A    between atoms: C_366  and  C_367
REMARK  118  A    between atoms: C_367  and  O_368
REMARK  119  A    between atoms: O_370  and  C_371
REMARK  120  A    between atoms: O_370  and  P_412
REMARK  121  A    between atoms: C_371  and  C_372
REMARK  122  A    between atoms: C_373  and  S_374
REMARK  123  A    between atoms: S_374  and  P_387
REMARK  124  A    between atoms: C_375  and  O_376
REMARK  125  A    between atoms: O_376  and  C_391
REMARK  126  A    between atoms: C_377  and  N_379
REMARK  127  A    between atoms: C_391  and  C_392
REMARK  128  A    between atoms: C_392  and  O_393
REMARK  129  A    between atoms: O_395  and  C_396
REMARK  130  A    between atoms: O_395  and  P_437
REMARK  131  A    between atoms: C_396  and  C_397
REMARK  132  A    between atoms: C_398  and  S_399
REMARK  133  A    between atoms: S_399  and  P_412
REMARK  134  A    between atoms: C_400  and  O_401
REMARK  135  A    between atoms: O_401  and  C_416
REMARK  136  A    between atoms: C_402  and  N_404
REMARK  137  A    between atoms: C_416  and  C_417
REMARK  138  A    between atoms: C_417  and  O_418
REMARK  139  A    between atoms: O_420  and  C_421
REMARK  140  A    between atoms: O_420  and  P_465
REMARK  141  A    between atoms: C_421  and  C_422
REMARK  142  A    between atoms: C_423  and  S_424
REMARK  143  A    between atoms: S_424  and  P_437
REMARK  144  A    between atoms: C_425  and  O_426
REMARK  145  A    between atoms: O_426  and  C_441
REMARK  146  A    between atoms: C_427  and  N_429
REMARK  147  A    between atoms: C_441  and  C_442
REMARK  148  A    between atoms: C_442  and  O_443
REMARK  149  A    between atoms: C_446  and  C_447
REMARK  150  A    between atoms: C_448  and  S_449
REMARK  151  A    between atoms: S_449  and  P_465
REMARK  152  A    between atoms: C_450  and  O_451
REMARK  153  A    between atoms: O_451  and  C_468
REMARK  154  A    between atoms: C_452  and  N_454
REMARK  155  A    between atoms: C_468  and  C_469
REMARK  156  A    between atoms: C_469  and  O_470
REMARK                            x       y       z     vdW  Elec       q    Type
REMARK                         _______ _______ _______ _____ _____    ______ ____
ROOT
ATOM      1 NA   UNL     1       2.192 -18.772   0.000  0.00  0.00    +0.000 Na
ENDROOT
TORSDOF 0
REMARK  Name = 
REMARK  156 active torsions:
REMARK  status: ('A' for Active; 'I' for Inactive)
REMARK    1  A    between atoms: O_15  and  C_16
REMARK    2  A    between atoms: O_15  and  P_54
REMARK    3  A    between atoms: C_16  and  C_17
REMARK    4  A    between atoms: C_20  and  O_21
REMARK    5  A    between atoms: O_21  and  C_33
REMARK    6  A    between atoms: C_22  and  N_24
REMARK    7  A    between atoms: C_33  and  C_34
REMARK    8  A    between atoms: C_34  and  O_35
REMARK    9  A    between atoms: O_37  and  C_38
REMARK   10  A    between atoms: O_37  and  P_81
REMARK   11  A    between atoms: C_38  and  C_39
REMARK   12  A    between atoms: C_40  and  S_41
REMARK   13  A    between atoms: S_41  and  P_54
REMARK   14  A    between atoms: C_42  and  O_43
REMARK   15  A    between atoms: O_43  and  C_58
REMARK   16  A    between atoms: C_44  and  N_46
REMARK   17  A    between atoms: C_58  and  C_59
REMARK   18  A    between atoms: C_59  and  O_60
REMARK   19  A    between atoms: O_62  and  C_63
REMARK   20  A    between atoms: O_62  and  P_105
REMARK   21  A    between atoms: C_63  and  C_64
REMARK   22  A    between atoms: C_65  and  S_66
REMARK   23  A    between atoms: S_66  and  P_81
REMARK   24  A    between atoms: C_67  and  O_68
REMARK   25  A    between atoms: O_68  and  C_84
REMARK   26  A    between atoms: C_69  and  N_71
REMARK   27  A    between atoms: C_84  and  C_85
REMARK   28  A    between atoms: C_85  and  O_86
REMARK   29  A    between atoms: O_88  and  C_89
REMARK   30  A    between atoms: O_88  and  P_133
REMARK   31  A    between atoms: C_89  and  C_90
REMARK   32  A    between atoms: C_91  and  S_92
REMARK   33  A    between atoms: S_92  and  P_105
REMARK   34  A    between atoms: C_93  and  O_94
REMARK   35  A    between atoms: O_94  and  C_109
REMARK   36  A    between atoms: C_95  and  N_97
REMARK   37  A    between atoms: C_109  and  C_110
REMARK   38  A    between atoms: C_110  and  O_111
REMARK   39  A    between atoms: O_113  and  C_114
REMARK   40  A    between atoms: O_113  and  P_156
REMARK   41  A    between atoms: C_114  and  C_115
REMARK   42  A    between atoms: C_116  and  S_117
REMARK   43  A    between atoms: S_117  and  P_133
REMARK   44  A    between atoms: C_118  and  O_119
REMARK   45  A    between atoms: O_119  and  C_136
REMARK   46  A    between atoms: C_120  and  N_122
REMARK   47  A    between atoms: C_136  and  C_137
REMARK   48  A    between atoms: C_137  and  O_138
REMARK   49  A    between atoms: O_140  and  C_141
REMARK   50  A    between atoms: O_140  and  P_177
REMARK   51  A    between atoms: C_141  and  C_142
REMARK   52  A    between atoms: C_143  and  S_144
REMARK   53  A    between atoms: S_144  and  P_156
REMARK   54  A    between atoms: C_146  and  N_148
REMARK   55  A    between atoms: O_160  and  C_161
REMARK   56  A    between atoms: O_160  and  P_197
REMARK   57  A    between atoms: C_161  and  C_162
REMARK   58  A    between atoms: C_163  and  S_164
REMARK   59  A    between atoms: S_164  and  P_177
REMARK   60  A    between atoms: C_166  and  N_168
REMARK   61  A    between atoms: O_180  and  C_181
REMARK   62  A    between atoms: O_180  and  P_216
REMARK   63  A    between atoms: C_181  and  C_182
REMARK   64  A    between atoms: C_183  and  S_184
REMARK   65  A    between atoms: S_184  and  P_197
REMARK   66  A    between atoms: C_186  and  N_188
REMARK   67  A    between atoms: O_200  and  C_201
REMARK   68  A    between atoms: O_200  and  P_239
REMARK   69  A    between atoms: C_201  and  C_202
REMARK   70  A    between atoms: C_203  and  S_204
REMARK   71  A    between atoms: S_204  and  P_216
REMARK   72  A    between atoms: C_206  and  N_208
REMARK   73  A    between atoms: O_220  and  C_221
REMARK   74  A    between atoms: O_220  and  P_259
REMARK   75  A    between atoms: C_221  and  C_222
REMARK   76  A    between atoms: C_223  and  S_224
REMARK   77  A    between atoms: S_224  and  P_239
REMARK   78  A    between atoms: C_226  and  N_228
REMARK   79  A    between atoms: O_242  and  C_243
REMARK   80  A    between atoms: O_242  and  P_278
REMARK   81  A    between atoms: C_243  and  C_244
REMARK   82  A    between atoms: C_245  and  S_246
REMARK   83  A    between atoms: S_246  and  P_259
REMARK   84  A    between atoms: C_248  and  N_250
REMARK   85  A    between atoms: O_262  and  C_263
REMARK   86  A    between atoms: O_262  and  P_299
REMARK   87  A    between atoms: C_263  and  C_264
REMARK   88  A    between atoms: C_265  and  S_266
REMARK   89  A    between atoms: S_266  and  P_278
REMARK   90  A    between atoms: C_268  and  N_270
REMARK   91  A    between atoms: O_282  and  C_283
REMARK   92  A    between atoms: O_282  and  P_321
REMARK   93  A    between atoms: C_283  and  C_284
REMARK   94  A    between atoms: C_285  and  S_286
REMARK   95  A    between atoms: S_286  and  P_299
REMARK   96  A    between atoms: C_288  and  N_290
REMARK   97  A    between atoms: O_302  and  C_303
REMARK   98  A    between atoms: O_302  and  P_342
REMARK   99  A    between atoms: C_303  and  C_304
REMARK  100  A    between atoms: C_305  and  S_306
REMARK  101  A    between atoms: S_306  and  P_321
REMARK  102  A    between atoms: C_308  and  N_310
REMARK  103  A    between atoms: O_324  and  C_325
REMARK  104  A    between atoms: O_324  and  P_362
REMARK  105  A    between atoms: C_325  and  C_326
REMARK  106  A    between atoms: C_327  and  S_328
REMARK  107  A    between atoms: S_328  and  P_342
REMARK  108  A    between atoms: C_330  and  N_332
REMARK  109  A    between atoms: O_345  and  C_346
REMARK  110  A    between atoms: O_345  and  P_387
REMARK  111  A    between atoms: C_346  and  C_347
REMARK  112  A    between atoms: C_348  and  S_349
REMARK  113  A    between atoms: S_349  and  P_362
REMARK  114  A    between atoms: C_350  and  O_351
REMARK  115  A    between atoms: O_351  and  C_366
REMARK  116  A    between atoms: C_352  and  N_354
REMARK  117  A    between atoms: C_366  and  C_367
REMARK  118  A    between atoms: C_367  and  O_368
REMARK  119  A    between atoms: O_370  and  C_371
REMARK  120  A    between atoms: O_370  and  P_412
REMARK  121  A    between atoms: C_371  and  C_372
REMARK  122  A    between atoms: C_373  and  S_374
REMARK  123  A    between atoms: S_374  and  P_387
REMARK  124  A    between atoms: C_375  and  O_376
REMARK  125  A    between atoms: O_376  and  C_391
REMARK  126  A    between atoms: C_377  and  N_379
REMARK  127  A    between atoms: C_391  and  C_392
REMARK  128  A    between atoms: C_392  and  O_393
REMARK  129  A    between atoms: O_395  and  C_396
REMARK  130  A    between atoms: O_395  and  P_437
REMARK  131  A    between atoms: C_396  and  C_397
REMARK  132  A    between atoms: C_398  and  S_399
REMARK  133  A    between atoms: S_399  and  P_412
REMARK  134  A    between atoms: C_400  and  O_401
REMARK  135  A    between atoms: O_401  and  C_416
REMARK  136  A    between atoms: C_402  and  N_404
REMARK  137  A    between atoms: C_416  and  C_417
REMARK  138  A    between atoms: C_417  and  O_418
REMARK  139  A    between atoms: O_420  and  C_421
REMARK  140  A    between atoms: O_420  and  P_465
REMARK  141  A    between atoms: C_421  and  C_422
REMARK  142  A    between atoms: C_423  and  S_424
REMARK  143  A    between atoms: S_424  and  P_437
REMARK  144  A    between atoms: C_425  and  O_426
REMARK  145  A    between atoms: O_426  and  C_441
REMARK  146  A    between atoms: C_427  and  N_429
REMARK  147  A    between atoms: C_441  and  C_442
REMARK  148  A    between atoms: C_442  and  O_443
REMARK  149  A    between atoms: C_446  and  C_447
REMARK  150  A    between atoms: C_448  and  S_449
REMARK  151  A    between atoms: S_449  and  P_465
REMARK  152  A    between atoms: C_450  and  O_451
REMARK  153  A    between atoms: O_451  and  C_468
REMARK  154  A    between atoms: C_452  and  N_454
REMARK  155  A    between atoms: C_468  and  C_469
REMARK  156  A    between atoms: C_469  and  O_470
REMARK                            x       y       z     vdW  Elec       q    Type
REMARK                         _______ _______ _______ _____ _____    ______ ____
ROOT
ATOM      1 NA   UNL     1     -10.792 -16.470   0.000  0.00  0.00    +0.000 Na
ENDROOT
TORSDOF 0
REMARK  Name = 
REMARK  156 active torsions:
REMARK  status: ('A' for Active; 'I' for Inactive)
REMARK    1  A    between atoms: O_15  and  C_16
REMARK    2  A    between atoms: O_15  and  P_54
REMARK    3  A    between atoms: C_16  and  C_17
REMARK    4  A    between atoms: C_20  and  O_21
REMARK    5  A    between atoms: O_21  and  C_33
REMARK    6  A    between atoms: C_22  and  N_24
REMARK    7  A    between atoms: C_33  and  C_34
REMARK    8  A    between atoms: C_34  and  O_35
REMARK    9  A    between atoms: O_37  and  C_38
REMARK   10  A    between atoms: O_37  and  P_81
REMARK   11  A    between atoms: C_38  and  C_39
REMARK   12  A    between atoms: C_40  and  S_41
REMARK   13  A    between atoms: S_41  and  P_54
REMARK   14  A    between atoms: C_42  and  O_43
REMARK   15  A    between atoms: O_43  and  C_58
REMARK   16  A    between atoms: C_44  and  N_46
REMARK   17  A    between atoms: C_58  and  C_59
REMARK   18  A    between atoms: C_59  and  O_60
REMARK   19  A    between atoms: O_62  and  C_63
REMARK   20  A    between atoms: O_62  and  P_105
REMARK   21  A    between atoms: C_63  and  C_64
REMARK   22  A    between atoms: C_65  and  S_66
REMARK   23  A    between atoms: S_66  and  P_81
REMARK   24  A    between atoms: C_67  and  O_68
REMARK   25  A    between atoms: O_68  and  C_84
REMARK   26  A    between atoms: C_69  and  N_71
REMARK   27  A    between atoms: C_84  and  C_85
REMARK   28  A    between atoms: C_85  and  O_86
REMARK   29  A    between atoms: O_88  and  C_89
REMARK   30  A    between atoms: O_88  and  P_133
REMARK   31  A    between atoms: C_89  and  C_90
REMARK   32  A    between atoms: C_91  and  S_92
REMARK   33  A    between atoms: S_92  and  P_105
REMARK   34  A    between atoms: C_93  and  O_94
REMARK   35  A    between atoms: O_94  and  C_109
REMARK   36  A    between atoms: C_95  and  N_97
REMARK   37  A    between atoms: C_109  and  C_110
REMARK   38  A    between atoms: C_110  and  O_111
REMARK   39  A    between atoms: O_113  and  C_114
REMARK   40  A    between atoms: O_113  and  P_156
REMARK   41  A    between atoms: C_114  and  C_115
REMARK   42  A    between atoms: C_116  and  S_117
REMARK   43  A    between atoms: S_117  and  P_133
REMARK   44  A    between atoms: C_118  and  O_119
REMARK   45  A    between atoms: O_119  and  C_136
REMARK   46  A    between atoms: C_120  and  N_122
REMARK   47  A    between atoms: C_136  and  C_137
REMARK   48  A    between atoms: C_137  and  O_138
REMARK   49  A    between atoms: O_140  and  C_141
REMARK   50  A    between atoms: O_140  and  P_177
REMARK   51  A    between atoms: C_141  and  C_142
REMARK   52  A    between atoms: C_143  and  S_144
REMARK   53  A    between atoms: S_144  and  P_156
REMARK   54  A    between atoms: C_146  and  N_148
REMARK   55  A    between atoms: O_160  and  C_161
REMARK   56  A    between atoms: O_160  and  P_197
REMARK   57  A    between atoms: C_161  and  C_162
REMARK   58  A    between atoms: C_163  and  S_164
REMARK   59  A    between atoms: S_164  and  P_177
REMARK   60  A    between atoms: C_166  and  N_168
REMARK   61  A    between atoms: O_180  and  C_181
REMARK   62  A    between atoms: O_180  and  P_216
REMARK   63  A    between atoms: C_181  and  C_182
REMARK   64  A    between atoms: C_183  and  S_184
REMARK   65  A    between atoms: S_184  and  P_197
REMARK   66  A    between atoms: C_186  and  N_188
REMARK   67  A    between atoms: O_200  and  C_201
REMARK   68  A    between atoms: O_200  and  P_239
REMARK   69  A    between atoms: C_201  and  C_202
REMARK   70  A    between atoms: C_203  and  S_204
REMARK   71  A    between atoms: S_204  and  P_216
REMARK   72  A    between atoms: C_206  and  N_208
REMARK   73  A    between atoms: O_220  and  C_221
REMARK   74  A    between atoms: O_220  and  P_259
REMARK   75  A    between atoms: C_221  and  C_222
REMARK   76  A    between atoms: C_223  and  S_224
REMARK   77  A    between atoms: S_224  and  P_239
REMARK   78  A    between atoms: C_226  and  N_228
REMARK   79  A    between atoms: O_242  and  C_243
REMARK   80  A    between atoms: O_242  and  P_278
REMARK   81  A    between atoms: C_243  and  C_244
REMARK   82  A    between atoms: C_245  and  S_246
REMARK   83  A    between atoms: S_246  and  P_259
REMARK   84  A    between atoms: C_248  and  N_250
REMARK   85  A    between atoms: O_262  and  C_263
REMARK   86  A    between atoms: O_262  and  P_299
REMARK   87  A    between atoms: C_263  and  C_264
REMARK   88  A    between atoms: C_265  and  S_266
REMARK   89  A    between atoms: S_266  and  P_278
REMARK   90  A    between atoms: C_268  and  N_270
REMARK   91  A    between atoms: O_282  and  C_283
REMARK   92  A    between atoms: O_282  and  P_321
REMARK   93  A    between atoms: C_283  and  C_284
REMARK   94  A    between atoms: C_285  and  S_286
REMARK   95  A    between atoms: S_286  and  P_299
REMARK   96  A    between atoms: C_288  and  N_290
REMARK   97  A    between atoms: O_302  and  C_303
REMARK   98  A    between atoms: O_302  and  P_342
REMARK   99  A    between atoms: C_303  and  C_304
REMARK  100  A    between atoms: C_305  and  S_306
REMARK  101  A    between atoms: S_306  and  P_321
REMARK  102  A    between atoms: C_308  and  N_310
REMARK  103  A    between atoms: O_324  and  C_325
REMARK  104  A    between atoms: O_324  and  P_362
REMARK  105  A    between atoms: C_325  and  C_326
REMARK  106  A    between atoms: C_327  and  S_328
REMARK  107  A    between atoms: S_328  and  P_342
REMARK  108  A    between atoms: C_330  and  N_332
REMARK  109  A    between atoms: O_345  and  C_346
REMARK  110  A    between atoms: O_345  and  P_387
REMARK  111  A    between atoms: C_346  and  C_347
REMARK  112  A    between atoms: C_348  and  S_349
REMARK  113  A    between atoms: S_349  and  P_362
REMARK  114  A    between atoms: C_350  and  O_351
REMARK  115  A    between atoms: O_351  and  C_366
REMARK  116  A    between atoms: C_352  and  N_354
REMARK  117  A    between atoms: C_366  and  C_367
REMARK  118  A    between atoms: C_367  and  O_368
REMARK  119  A    between atoms: O_370  and  C_371
REMARK  120  A    between atoms: O_370  and  P_412
REMARK  121  A    between atoms: C_371  and  C_372
REMARK  122  A    between atoms: C_373  and  S_374
REMARK  123  A    between atoms: S_374  and  P_387
REMARK  124  A    between atoms: C_375  and  O_376
REMARK  125  A    between atoms: O_376  and  C_391
REMARK  126  A    between atoms: C_377  and  N_379
REMARK  127  A    between atoms: C_391  and  C_392
REMARK  128  A    between atoms: C_392  and  O_393
REMARK  129  A    between atoms: O_395  and  C_396
REMARK  130  A    between atoms: O_395  and  P_437
REMARK  131  A    between atoms: C_396  and  C_397
REMARK  132  A    between atoms: C_398  and  S_399
REMARK  133  A    between atoms: S_399  and  P_412
REMARK  134  A    between atoms: C_400  and  O_401
REMARK  135  A    between atoms: O_401  and  C_416
REMARK  136  A    between atoms: C_402  and  N_404
REMARK  137  A    between atoms: C_416  and  C_417
REMARK  138  A    between atoms: C_417  and  O_418
REMARK  139  A    between atoms: O_420  and  C_421
REMARK  140  A    between atoms: O_420  and  P_465
REMARK  141  A    between atoms: C_421  and  C_422
REMARK  142  A    between atoms: C_423  and  S_424
REMARK  143  A    between atoms: S_424  and  P_437
REMARK  144  A    between atoms: C_425  and  O_426
REMARK  145  A    between atoms: O_426  and  C_441
REMARK  146  A    between atoms: C_427  and  N_429
REMARK  147  A    between atoms: C_441  and  C_442
REMARK  148  A    between atoms: C_442  and  O_443
REMARK  149  A    between atoms: C_446  and  C_447
REMARK  150  A    between atoms: C_448  and  S_449
REMARK  151  A    between atoms: S_449  and  P_465
REMARK  152  A    between atoms: C_450  and  O_451
REMARK  153  A    between atoms: O_451  and  C_468
REMARK  154  A    between atoms: C_452  and  N_454
REMARK  155  A    between atoms: C_468  and  C_469
REMARK  156  A    between atoms: C_469  and  O_470
REMARK                            x       y       z     vdW  Elec       q    Type
REMARK                         _______ _______ _______ _____ _____    ______ ____
ROOT
ATOM      1 NA   UNL     1      -6.794 -16.529   0.000  0.00  0.00    +0.000 Na
ENDROOT
TORSDOF 0
REMARK  Name = 
REMARK  156 active torsions:
REMARK  status: ('A' for Active; 'I' for Inactive)
REMARK    1  A    between atoms: O_15  and  C_16
REMARK    2  A    between atoms: O_15  and  P_54
REMARK    3  A    between atoms: C_16  and  C_17
REMARK    4  A    between atoms: C_20  and  O_21
REMARK    5  A    between atoms: O_21  and  C_33
REMARK    6  A    between atoms: C_22  and  N_24
REMARK    7  A    between atoms: C_33  and  C_34
REMARK    8  A    between atoms: C_34  and  O_35
REMARK    9  A    between atoms: O_37  and  C_38
REMARK   10  A    between atoms: O_37  and  P_81
REMARK   11  A    between atoms: C_38  and  C_39
REMARK   12  A    between atoms: C_40  and  S_41
REMARK   13  A    between atoms: S_41  and  P_54
REMARK   14  A    between atoms: C_42  and  O_43
REMARK   15  A    between atoms: O_43  and  C_58
REMARK   16  A    between atoms: C_44  and  N_46
REMARK   17  A    between atoms: C_58  and  C_59
REMARK   18  A    between atoms: C_59  and  O_60
REMARK   19  A    between atoms: O_62  and  C_63
REMARK   20  A    between atoms: O_62  and  P_105
REMARK   21  A    between atoms: C_63  and  C_64
REMARK   22  A    between atoms: C_65  and  S_66
REMARK   23  A    between atoms: S_66  and  P_81
REMARK   24  A    between atoms: C_67  and  O_68
REMARK   25  A    between atoms: O_68  and  C_84
REMARK   26  A    between atoms: C_69  and  N_71
REMARK   27  A    between atoms: C_84  and  C_85
REMARK   28  A    between atoms: C_85  and  O_86
REMARK   29  A    between atoms: O_88  and  C_89
REMARK   30  A    between atoms: O_88  and  P_133
REMARK   31  A    between atoms: C_89  and  C_90
REMARK   32  A    between atoms: C_91  and  S_92
REMARK   33  A    between atoms: S_92  and  P_105
REMARK   34  A    between atoms: C_93  and  O_94
REMARK   35  A    between atoms: O_94  and  C_109
REMARK   36  A    between atoms: C_95  and  N_97
REMARK   37  A    between atoms: C_109  and  C_110
REMARK   38  A    between atoms: C_110  and  O_111
REMARK   39  A    between atoms: O_113  and  C_114
REMARK   40  A    between atoms: O_113  and  P_156
REMARK   41  A    between atoms: C_114  and  C_115
REMARK   42  A    between atoms: C_116  and  S_117
REMARK   43  A    between atoms: S_117  and  P_133
REMARK   44  A    between atoms: C_118  and  O_119
REMARK   45  A    between atoms: O_119  and  C_136
REMARK   46  A    between atoms: C_120  and  N_122
REMARK   47  A    between atoms: C_136  and  C_137
REMARK   48  A    between atoms: C_137  and  O_138
REMARK   49  A    between atoms: O_140  and  C_141
REMARK   50  A    between atoms: O_140  and  P_177
REMARK   51  A    between atoms: C_141  and  C_142
REMARK   52  A    between atoms: C_143  and  S_144
REMARK   53  A    between atoms: S_144  and  P_156
REMARK   54  A    between atoms: C_146  and  N_148
REMARK   55  A    between atoms: O_160  and  C_161
REMARK   56  A    between atoms: O_160  and  P_197
REMARK   57  A    between atoms: C_161  and  C_162
REMARK   58  A    between atoms: C_163  and  S_164
REMARK   59  A    between atoms: S_164  and  P_177
REMARK   60  A    between atoms: C_166  and  N_168
REMARK   61  A    between atoms: O_180  and  C_181
REMARK   62  A    between atoms: O_180  and  P_216
REMARK   63  A    between atoms: C_181  and  C_182
REMARK   64  A    between atoms: C_183  and  S_184
REMARK   65  A    between atoms: S_184  and  P_197
REMARK   66  A    between atoms: C_186  and  N_188
REMARK   67  A    between atoms: O_200  and  C_201
REMARK   68  A    between atoms: O_200  and  P_239
REMARK   69  A    between atoms: C_201  and  C_202
REMARK   70  A    between atoms: C_203  and  S_204
REMARK   71  A    between atoms: S_204  and  P_216
REMARK   72  A    between atoms: C_206  and  N_208
REMARK   73  A    between atoms: O_220  and  C_221
REMARK   74  A    between atoms: O_220  and  P_259
REMARK   75  A    between atoms: C_221  and  C_222
REMARK   76  A    between atoms: C_223  and  S_224
REMARK   77  A    between atoms: S_224  and  P_239
REMARK   78  A    between atoms: C_226  and  N_228
REMARK   79  A    between atoms: O_242  and  C_243
REMARK   80  A    between atoms: O_242  and  P_278
REMARK   81  A    between atoms: C_243  and  C_244
REMARK   82  A    between atoms: C_245  and  S_246
REMARK   83  A    between atoms: S_246  and  P_259
REMARK   84  A    between atoms: C_248  and  N_250
REMARK   85  A    between atoms: O_262  and  C_263
REMARK   86  A    between atoms: O_262  and  P_299
REMARK   87  A    between atoms: C_263  and  C_264
REMARK   88  A    between atoms: C_265  and  S_266
REMARK   89  A    between atoms: S_266  and  P_278
REMARK   90  A    between atoms: C_268  and  N_270
REMARK   91  A    between atoms: O_282  and  C_283
REMARK   92  A    between atoms: O_282  and  P_321
REMARK   93  A    between atoms: C_283  and  C_284
REMARK   94  A    between atoms: C_285  and  S_286
REMARK   95  A    between atoms: S_286  and  P_299
REMARK   96  A    between atoms: C_288  and  N_290
REMARK   97  A    between atoms: O_302  and  C_303
REMARK   98  A    between atoms: O_302  and  P_342
REMARK   99  A    between atoms: C_303  and  C_304
REMARK  100  A    between atoms: C_305  and  S_306
REMARK  101  A    between atoms: S_306  and  P_321
REMARK  102  A    between atoms: C_308  and  N_310
REMARK  103  A    between atoms: O_324  and  C_325
REMARK  104  A    between atoms: O_324  and  P_362
REMARK  105  A    between atoms: C_325  and  C_326
REMARK  106  A    between atoms: C_327  and  S_328
REMARK  107  A    between atoms: S_328  and  P_342
REMARK  108  A    between atoms: C_330  and  N_332
REMARK  109  A    between atoms: O_345  and  C_346
REMARK  110  A    between atoms: O_345  and  P_387
REMARK  111  A    between atoms: C_346  and  C_347
REMARK  112  A    between atoms: C_348  and  S_349
REMARK  113  A    between atoms: S_349  and  P_362
REMARK  114  A    between atoms: C_350  and  O_351
REMARK  115  A    between atoms: O_351  and  C_366
REMARK  116  A    between atoms: C_352  and  N_354
REMARK  117  A    between atoms: C_366  and  C_367
REMARK  118  A    between atoms: C_367  and  O_368
REMARK  119  A    between atoms: O_370  and  C_371
REMARK  120  A    between atoms: O_370  and  P_412
REMARK  121  A    between atoms: C_371  and  C_372
REMARK  122  A    between atoms: C_373  and  S_374
REMARK  123  A    between atoms: S_374  and  P_387
REMARK  124  A    between atoms: C_375  and  O_376
REMARK  125  A    between atoms: O_376  and  C_391
REMARK  126  A    between atoms: C_377  and  N_379
REMARK  127  A    between atoms: C_391  and  C_392
REMARK  128  A    between atoms: C_392  and  O_393
REMARK  129  A    between atoms: O_395  and  C_396
REMARK  130  A    between atoms: O_395  and  P_437
REMARK  131  A    between atoms: C_396  and  C_397
REMARK  132  A    between atoms: C_398  and  S_399
REMARK  133  A    between atoms: S_399  and  P_412
REMARK  134  A    between atoms: C_400  and  O_401
REMARK  135  A    between atoms: O_401  and  C_416
REMARK  136  A    between atoms: C_402  and  N_404
REMARK  137  A    between atoms: C_416  and  C_417
REMARK  138  A    between atoms: C_417  and  O_418
REMARK  139  A    between atoms: O_420  and  C_421
REMARK  140  A    between atoms: O_420  and  P_465
REMARK  141  A    between atoms: C_421  and  C_422
REMARK  142  A    between atoms: C_423  and  S_424
REMARK  143  A    between atoms: S_424  and  P_437
REMARK  144  A    between atoms: C_425  and  O_426
REMARK  145  A    between atoms: O_426  and  C_441
REMARK  146  A    between atoms: C_427  and  N_429
REMARK  147  A    between atoms: C_441  and  C_442
REMARK  148  A    between atoms: C_442  and  O_443
REMARK  149  A    between atoms: C_446  and  C_447
REMARK  150  A    between atoms: C_448  and  S_449
REMARK  151  A    between atoms: S_449  and  P_465
REMARK  152  A    between atoms: C_450  and  O_451
REMARK  153  A    between atoms: O_451  and  C_468
REMARK  154  A    between atoms: C_452  and  N_454
REMARK  155  A    between atoms: C_468  and  C_469
REMARK  156  A    between atoms: C_469  and  O_470
REMARK                            x       y       z     vdW  Elec       q    Type
REMARK                         _______ _______ _______ _____ _____    ______ ____
ROOT
ATOM      1  P   UNL     1      20.104 -11.945   0.000  0.00  0.00    +0.000 P 
ATOM      2  O   UNL     1      19.439 -12.435   0.000  0.00  0.00    +0.000 OA
ATOM      3  O   UNL     1      20.588 -12.616   0.000  0.00  0.00    +0.000 OA
ENDROOT
BRANCH   1   4
ATOM      4  O   UNL     1      20.769 -11.467   0.000  0.00  0.00    +0.000 OA
BRANCH   4   5
ATOM      5  C   UNL     1      21.526 -11.800   0.000  0.00  0.00    +0.000 C 
BRANCH   5   6
ATOM      6  C   UNL     1      21.572 -12.626   0.000  0.00  0.00    +0.000 C 
ATOM      7  C   UNL     1      22.260 -13.075   0.000  0.00  0.00    +0.000 C 
ATOM      8  C   UNL     1      22.048 -13.871   0.000  0.00  0.00    +0.000 C 
ATOM      9  C   UNL     1      21.223 -13.911   0.000  0.00  0.00    +0.000 C 
ATOM     10  O   UNL     1      20.928 -13.143   0.000  0.00  0.00    +0.000 OA
BRANCH   9  11
ATOM     11  N   UNL     1      20.774 -14.605   0.000  0.00  0.00    +0.000 N 
ATOM     12  C   UNL     1      19.948 -14.645   0.000  0.00  0.00    +0.000 A 
ATOM     13  N   UNL     1      19.736 -15.442   0.000  0.00  0.00    +0.000 NA
ATOM     14  C   UNL     1      20.424 -15.897   0.000  0.00  0.00    +0.000 A 
ATOM     15  C   UNL     1      20.555 -16.708   0.000  0.00  0.00    +0.000 A 
ATOM     16  O   UNL     1      19.917 -17.231   0.000  0.00  0.00    +0.000 OA
ATOM     17  N   UNL     1      21.324 -17.003   0.000  0.00  0.00    +0.000 NA
ATOM     18  C   UNL     1      21.968 -16.486   0.000  0.00  0.00    +0.000 A 
ATOM     19  N   UNL     1      22.736 -16.781   0.000  0.00  0.00    +0.000 NA
ATOM     20  N   UNL     1      21.837 -15.669   0.000  0.00  0.00    +0.000 NA
ATOM     21  C   UNL     1      21.068 -15.374   0.000  0.00  0.00    +0.000 A 
ENDBRANCH   9  11
BRANCH   7  22
ATOM     22  S   UNL     1      23.029 -12.774   0.000  0.00  0.00    +0.000 S 
BRANCH  22  23
ATOM     23  P   UNL     1      23.159 -11.962   0.000  0.00  0.00    +0.000 P 
ATOM     24  O   UNL     1      22.342 -11.832   0.000  0.00  0.00    +0.000 OA
ATOM     25  O   UNL     1      23.290 -11.151   0.000  0.00  0.00    +0.000 OA
BRANCH  23  26
ATOM     26  O   UNL     1      23.977 -12.093   0.000  0.00  0.00    +0.000 OA
BRANCH  26  27
ATOM     27  C   UNL     1      24.455 -11.422   0.000  0.00  0.00    +0.000 C 
BRANCH  27  28
ATOM     28  C   UNL     1      24.122 -10.671   0.000  0.00  0.00    +0.000 C 
ATOM     29  C   UNL     1      24.532  -9.958   0.000  0.00  0.00    +0.000 C 
ATOM     30  C   UNL     1      23.980  -9.345   0.000  0.00  0.00    +0.000 C 
ATOM     31  C   UNL     1      23.230  -9.678   0.000  0.00  0.00    +0.000 C 
ATOM     32  O   UNL     1      23.315 -10.502   0.000  0.00  0.00    +0.000 OA
BRANCH  31  33
ATOM     33  N   UNL     1      22.516  -9.267   0.000  0.00  0.00    +0.000 N 
ATOM     34  C   UNL     1      22.516  -8.440   0.000  0.00  0.00    +0.000 A 
ATOM     35  O   UNL     1      23.230  -8.029   0.000  0.00  0.00    +0.000 OA
ATOM     36  N   UNL     1      21.803  -8.029   0.000  0.00  0.00    +0.000 NA
ATOM     37  C   UNL     1      21.089  -8.440   0.000  0.00  0.00    +0.000 A 
ATOM     38  N   UNL     1      20.376  -8.029   0.000  0.00  0.00    +0.000 NA
ATOM     39  C   UNL     1      21.089  -9.267   0.000  0.00  0.00    +0.000 A 
ATOM     40  C   UNL     1      21.803  -9.678   0.000  0.00  0.00    +0.000 A 
ATOM     41  C   UNL     1      20.376  -9.678   0.000  0.00  0.00    +0.000 C 
ENDBRANCH  31  33
BRANCH  29  42
ATOM     42  S   UNL     1      25.356  -9.872   0.000  0.00  0.00    +0.000 S 
BRANCH  42  43
ATOM     43  P   UNL     1      25.840 -10.537   0.000  0.00  0.00    +0.000 P 
ATOM     44  O   UNL     1      25.169 -11.022   0.000  0.00  0.00    +0.000 OA
ATOM     45  O   UNL     1      26.325 -11.202   0.000  0.00  0.00    +0.000 OA
BRANCH  43  46
ATOM     46  O   UNL     1      26.506 -10.053   0.000  0.00  0.00    +0.000 OA
BRANCH  46  47
ATOM     47  C   UNL     1      27.262 -10.387   0.000  0.00  0.00    +0.000 C 
BRANCH  47  48
ATOM     48  C   UNL     1      27.302 -11.212   0.000  0.00  0.00    +0.000 C 
ATOM     49  C   UNL     1      27.997 -11.661   0.000  0.00  0.00    +0.000 C 
ATOM     50  C   UNL     1      27.784 -12.457   0.000  0.00  0.00    +0.000 C 
ATOM     51  C   UNL     1      26.959 -12.503   0.000  0.00  0.00    +0.000 C 
ATOM     52  O   UNL     1      26.664 -11.735   0.000  0.00  0.00    +0.000 OA
BRANCH  51  53
ATOM     53  N   UNL     1      26.510 -13.191   0.000  0.00  0.00    +0.000 N 
ATOM     54  C   UNL     1      26.886 -13.932   0.000  0.00  0.00    +0.000 A 
ATOM     55  O   UNL     1      27.712 -13.972   0.000  0.00  0.00    +0.000 OA
ATOM     56  N   UNL     1      26.437 -14.620   0.000  0.00  0.00    +0.000 NA
ATOM     57  C   UNL     1      25.612 -14.574   0.000  0.00  0.00    +0.000 A 
ATOM     58  O   UNL     1      25.163 -15.268   0.000  0.00  0.00    +0.000 OA
ATOM     59  C   UNL     1      25.236 -13.840   0.000  0.00  0.00    +0.000 A 
ATOM     60  C   UNL     1      24.411 -13.800   0.000  0.00  0.00    +0.000 C 
ATOM     61  C   UNL     1      25.685 -13.152   0.000  0.00  0.00    +0.000 A 
ENDBRANCH  51  53
BRANCH  49  62
ATOM     62  S   UNL     1      28.765 -11.366   0.000  0.00  0.00    +0.000 S 
BRANCH  62  63
ATOM     63  P   UNL     1      28.895 -10.548   0.000  0.00  0.00    +0.000 P 
ATOM     64  O   UNL     1      28.078 -10.424   0.000  0.00  0.00    +0.000 OA
ATOM     65  O   UNL     1      29.026  -9.737   0.000  0.00  0.00    +0.000 OA
BRANCH  63  66
ATOM     66  O   UNL     1      29.707 -10.679   0.000  0.00  0.00    +0.000 OA
BRANCH  66  67
ATOM     67  C   UNL     1      30.198 -10.014   0.000  0.00  0.00    +0.000 C 
BRANCH  67  68
ATOM     68  C   UNL     1      29.858  -9.257   0.000  0.00  0.00    +0.000 C 
ATOM     69  C   UNL     1      30.275  -8.544   0.000  0.00  0.00    +0.000 C 
ATOM     70  C   UNL     1      29.723  -7.931   0.000  0.00  0.00    +0.000 C 
ATOM     71  C   UNL     1      28.966  -8.270   0.000  0.00  0.00    +0.000 C 
ATOM     72  O   UNL     1      29.058  -9.088   0.000  0.00  0.00    +0.000 OA
BRANCH  71  73
ATOM     73  N   UNL     1      28.253  -7.854   0.000  0.00  0.00    +0.000 N 
ATOM     74  C   UNL     1      27.539  -8.270   0.000  0.00  0.00    +0.000 A 
ATOM     75  O   UNL     1      27.539  -9.092   0.000  0.00  0.00    +0.000 OA
ATOM     76  N   UNL     1      26.820  -7.854   0.000  0.00  0.00    +0.000 NA
ATOM     77  C   UNL     1      26.820  -7.032   0.000  0.00  0.00    +0.000 A 
ATOM     78  O   UNL     1      26.106  -6.621   0.000  0.00  0.00    +0.000 OA
ATOM     79  C   UNL     1      27.539  -6.621   0.000  0.00  0.00    +0.000 A 
ATOM     80  C   UNL     1      27.539  -5.793   0.000  0.00  0.00    +0.000 C 
ATOM     81  C   UNL     1      28.253  -7.032   0.000  0.00  0.00    +0.000 A 
ENDBRANCH  71  73
BRANCH  69  82
ATOM     82  S   UNL     1      31.093  -8.458   0.000  0.00  0.00    +0.000 S 
BRANCH  82  83
ATOM     83  P   UNL     1      31.577  -9.123   0.000  0.00  0.00    +0.000 P 
ATOM     84  O   UNL     1      30.912  -9.608   0.000  0.00  0.00    +0.000 OA
ATOM     85  O   UNL     1      32.061  -9.794   0.000  0.00  0.00    +0.000 OA
BRANCH  83  86
ATOM     86  O   UNL     1      32.248  -8.639   0.000  0.00  0.00    +0.000 OA
BRANCH  86  87
ATOM     87  C   UNL     1      32.999  -8.979   0.000  0.00  0.00    +0.000 C 
BRANCH  87  88
ATOM     88  C   UNL     1      33.129  -9.790   0.000  0.00  0.00    +0.000 C 
ATOM     89  C   UNL     1      33.864 -10.166   0.000  0.00  0.00    +0.000 C 
ATOM     90  C   UNL     1      33.733 -10.978   0.000  0.00  0.00    +0.000 C 
ATOM     91  C   UNL     1      32.921 -11.109   0.000  0.00  0.00    +0.000 C 
ATOM     92  O   UNL     1      32.545 -10.375   0.000  0.00  0.00    +0.000 OA
BRANCH  91  93
ATOM     93  N   UNL     1      32.545 -11.843   0.000  0.00  0.00    +0.000 N 
ATOM     94  C   UNL     1      32.994 -12.537   0.000  0.00  0.00    +0.000 A 
ATOM     95  O   UNL     1      33.819 -12.492   0.000  0.00  0.00    +0.000 OA
ATOM     96  N   UNL     1      32.617 -13.271   0.000  0.00  0.00    +0.000 NA
ATOM     97  C   UNL     1      31.792 -13.317   0.000  0.00  0.00    +0.000 A 
ATOM     98  N   UNL     1      31.422 -14.052   0.000  0.00  0.00    +0.000 NA
ATOM     99  C   UNL     1      31.349 -12.623   0.000  0.00  0.00    +0.000 A 
ATOM    100  C   UNL     1      31.720 -11.889   0.000  0.00  0.00    +0.000 A 
ATOM    101  C   UNL     1      30.524 -12.669   0.000  0.00  0.00    +0.000 C 
ENDBRANCH  91  93
BRANCH  89 102
ATOM    102  S   UNL     1      34.598  -9.790   0.000  0.00  0.00    +0.000 S 
BRANCH 102 103
ATOM    103  P   UNL     1      35.286 -10.239   0.000  0.00  0.00    +0.000 P 
ATOM    104  O   UNL     1      35.980 -10.694   0.000  0.00  0.00    +0.000 OA
ATOM    105  O   UNL     1      34.843 -10.934   0.000  0.00  0.00    +0.000 OA
BRANCH 103 106
ATOM    106  O   UNL     1      35.741  -9.551   0.000  0.00  0.00    +0.000 OA
BRANCH 106 107
ATOM    107  C   UNL     1      35.365  -8.817   0.000  0.00  0.00    +0.000 C 
BRANCH 107 108
ATOM    108  C   UNL     1      35.849  -8.146   0.000  0.00  0.00    +0.000 C 
ATOM    109  C   UNL     1      35.595  -7.364   0.000  0.00  0.00    +0.000 C 
ATOM    110  C   UNL     1      36.260  -6.873   0.000  0.00  0.00    +0.000 C 
ATOM    111  C   UNL     1      36.931  -7.364   0.000  0.00  0.00    +0.000 C 
ATOM    112  O   UNL     1      36.676  -8.146   0.000  0.00  0.00    +0.000 OA
BRANCH 111 113
ATOM    113  N   UNL     1      37.713  -7.109   0.000  0.00  0.00    +0.000 N 
ATOM    114  C   UNL     1      37.967  -6.322   0.000  0.00  0.00    +0.000 A 
ATOM    115  N   UNL     1      38.795  -6.322   0.000  0.00  0.00    +0.000 NA
ATOM    116  C   UNL     1      39.049  -7.109   0.000  0.00  0.00    +0.000 A 
ATOM    117  C   UNL     1      39.800  -7.443   0.000  0.00  0.00    +0.000 A 
ATOM    118  O   UNL     1      40.471  -6.959   0.000  0.00  0.00    +0.000 OA
ATOM    119  N   UNL     1      39.885  -8.261   0.000  0.00  0.00    +0.000 NA
ATOM    120  C   UNL     1      39.220  -8.745   0.000  0.00  0.00    +0.000 A 
ATOM    121  N   UNL     1      39.305  -9.569   0.000  0.00  0.00    +0.000 NA
ATOM    122  N   UNL     1      38.469  -8.412   0.000  0.00  0.00    +0.000 NA
ATOM    123  C   UNL     1      38.378  -7.594   0.000  0.00  0.00    +0.000 A 
ENDBRANCH 111 113
BRANCH 110 124
ATOM    124  O   UNL     1      36.260  -6.052   0.000  0.00  0.00    +0.000 OA
BRANCH 124 125
ATOM    125  C   UNL     1      36.973  -5.641   0.000  0.00  0.00    +0.000 C 
BRANCH 125 126
ATOM    126  C   UNL     1      36.973  -4.813   0.000  0.00  0.00    +0.000 C 
BRANCH 126 127
ATOM    127  O   UNL     1      37.687  -4.402   0.000  0.00  0.00    +0.000 OA
ATOM    128  C   UNL     1      37.687  -3.575   0.000  0.00  0.00    +0.000 C 
ENDBRANCH 126 127
ENDBRANCH 125 126
ENDBRANCH 124 125
ENDBRANCH 110 124
BRANCH 109 129
ATOM    129  S   UNL     1      34.813  -7.109   0.000  0.00  0.00    +0.000 S 
BRANCH 129 130
ATOM    130  P   UNL     1      34.638  -6.297   0.000  0.00  0.00    +0.000 P 
ATOM    131  O   UNL     1      34.469  -5.490   0.000  0.00  0.00    +0.000 OA
ATOM    132  O   UNL     1      33.831  -6.472   0.000  0.00  0.00    +0.000 OA
BRANCH 130 133
ATOM    133  O   UNL     1      35.444  -6.128   0.000  0.00  0.00    +0.000 OA
BRANCH 133 134
ATOM    134  C   UNL     1      35.699  -5.346   0.000  0.00  0.00    +0.000 C 
BRANCH 134 135
ATOM    135  C   UNL     1      35.146  -4.733   0.000  0.00  0.00    +0.000 C 
ATOM    136  C   UNL     1      35.321  -3.921   0.000  0.00  0.00    +0.000 C 
ATOM    137  C   UNL     1      34.602  -3.510   0.000  0.00  0.00    +0.000 C 
ATOM    138  C   UNL     1      33.989  -4.062   0.000  0.00  0.00    +0.000 C 
ATOM    139  O   UNL     1      34.328  -4.819   0.000  0.00  0.00    +0.000 OA
BRANCH 138 140
ATOM    140  N   UNL     1      33.188  -3.893   0.000  0.00  0.00    +0.000 N 
ATOM    141  C   UNL     1      32.636  -4.506   0.000  0.00  0.00    +0.000 A 
ATOM    142  O   UNL     1      32.891  -5.288   0.000  0.00  0.00    +0.000 OA
ATOM    143  N   UNL     1      31.824  -4.331   0.000  0.00  0.00    +0.000 NA
ATOM    144  C   UNL     1      31.576  -3.549   0.000  0.00  0.00    +0.000 A 
ATOM    145  N   UNL     1      30.763  -3.380   0.000  0.00  0.00    +0.000 NA
ATOM    146  C   UNL     1      32.122  -2.936   0.000  0.00  0.00    +0.000 A 
ATOM    147  C   UNL     1      32.928  -3.105   0.000  0.00  0.00    +0.000 A 
ATOM    148  C   UNL     1      31.867  -2.154   0.000  0.00  0.00    +0.000 C 
ENDBRANCH 138 140
BRANCH 137 149
ATOM    149  O   UNL     1      34.522  -2.692   0.000  0.00  0.00    +0.000 OA
BRANCH 149 150
ATOM    150  C   UNL     1      33.748  -2.397   0.000  0.00  0.00    +0.000 C 
BRANCH 150 151
ATOM    151  C   UNL     1      33.623  -1.579   0.000  0.00  0.00    +0.000 C 
BRANCH 151 152
ATOM    152  O   UNL     1      32.849  -1.285   0.000  0.00  0.00    +0.000 OA
ATOM    153  C   UNL     1      32.724  -0.467   0.000  0.00  0.00    +0.000 C 
ENDBRANCH 151 152
ENDBRANCH 150 151
ENDBRANCH 149 150
ENDBRANCH 137 149
BRANCH 136 154
ATOM    154  S   UNL     1      36.072  -3.587   0.000  0.00  0.00    +0.000 S 
BRANCH 154 155
ATOM    155  P   UNL     1      36.157  -2.769   0.000  0.00  0.00    +0.000 P 
ATOM    156  O   UNL     1      36.249  -1.945   0.000  0.00  0.00    +0.000 OA
ATOM    157  O   UNL     1      36.981  -2.855   0.000  0.00  0.00    +0.000 OA
BRANCH 155 158
ATOM    158  O   UNL     1      35.340  -2.684   0.000  0.00  0.00    +0.000 OA
BRANCH 158 159
ATOM    159  C   UNL     1      35.006  -1.927   0.000  0.00  0.00    +0.000 C 
BRANCH 159 160
ATOM    160  C   UNL     1      35.490  -1.262   0.000  0.00  0.00    +0.000 C 
ATOM    161  C   UNL     1      35.236  -0.474   0.000  0.00  0.00    +0.000 C 
ATOM    162  C   UNL     1      35.901   0.010   0.000  0.00  0.00    +0.000 C 
ATOM    163  C   UNL     1      36.566  -0.474   0.000  0.00  0.00    +0.000 C 
ATOM    164  O   UNL     1      36.312  -1.262   0.000  0.00  0.00    +0.000 OA
BRANCH 163 165
ATOM    165  N   UNL     1      37.354  -0.220   0.000  0.00  0.00    +0.000 N 
ATOM    166  C   UNL     1      37.608   0.562   0.000  0.00  0.00    +0.000 A 
ATOM    167  N   UNL     1      38.430   0.562   0.000  0.00  0.00    +0.000 NA
ATOM    168  C   UNL     1      38.690  -0.220   0.000  0.00  0.00    +0.000 A 
ATOM    169  C   UNL     1      39.441  -0.559   0.000  0.00  0.00    +0.000 A 
ATOM    170  N   UNL     1      40.106  -0.075   0.000  0.00  0.00    +0.000 NA
ATOM    171  N   UNL     1      39.526  -1.377   0.000  0.00  0.00    +0.000 NA
ATOM    172  C   UNL     1      38.861  -1.861   0.000  0.00  0.00    +0.000 A 
ATOM    173  N   UNL     1      38.105  -1.528   0.000  0.00  0.00    +0.000 NA
ATOM    174  C   UNL     1      38.019  -0.704   0.000  0.00  0.00    +0.000 A 
ENDBRANCH 163 165
BRANCH 162 175
ATOM    175  O   UNL     1      35.901   0.832   0.000  0.00  0.00    +0.000 OA
BRANCH 175 176
ATOM    176  C   UNL     1      36.614   1.249   0.000  0.00  0.00    +0.000 C 
BRANCH 176 177
ATOM    177  C   UNL     1      36.614   2.070   0.000  0.00  0.00    +0.000 C 
BRANCH 177 178
ATOM    178  O   UNL     1      37.334   2.481   0.000  0.00  0.00    +0.000 OA
ATOM    179  C   UNL     1      37.334   3.309   0.000  0.00  0.00    +0.000 C 
ENDBRANCH 177 178
ENDBRANCH 176 177
ENDBRANCH 175 176
ENDBRANCH 162 175
BRANCH 161 180
ATOM    180  S   UNL     1      34.448  -0.220   0.000  0.00  0.00    +0.000 S 
BRANCH 180 181
ATOM    181  P   UNL     1      34.279   0.587   0.000  0.00  0.00    +0.000 P 
ATOM    182  O   UNL     1      34.104   1.393   0.000  0.00  0.00    +0.000 OA
ATOM    183  O   UNL     1      35.086   0.756   0.000  0.00  0.00    +0.000 OA
BRANCH 181 184
ATOM    184  O   UNL     1      33.473   0.412   0.000  0.00  0.00    +0.000 OA
BRANCH 184 185
ATOM    185  C   UNL     1      32.888   0.996   0.000  0.00  0.00    +0.000 C 
BRANCH 185 186
ATOM    186  C   UNL     1      33.101   1.793   0.000  0.00  0.00    +0.000 C 
ATOM    187  C   UNL     1      32.578   2.437   0.000  0.00  0.00    +0.000 C 
ATOM    188  C   UNL     1      33.033   3.131   0.000  0.00  0.00    +0.000 C 
ATOM    189  C   UNL     1      33.829   2.913   0.000  0.00  0.00    +0.000 C 
ATOM    190  O   UNL     1      33.869   2.088   0.000  0.00  0.00    +0.000 OA
BRANCH 189 191
ATOM    191  N   UNL     1      34.467   3.436   0.000  0.00  0.00    +0.000 N 
ATOM    192  C   UNL     1      34.343   4.247   0.000  0.00  0.00    +0.000 A 
ATOM    193  O   UNL     1      33.568   4.542   0.000  0.00  0.00    +0.000 OA
ATOM    194  N   UNL     1      34.980   4.764   0.000  0.00  0.00    +0.000 NA
ATOM    195  C   UNL     1      35.749   4.469   0.000  0.00  0.00    +0.000 A 
ATOM    196  N   UNL     1      36.393   4.992   0.000  0.00  0.00    +0.000 NA
ATOM    197  C   UNL     1      35.880   3.658   0.000  0.00  0.00    +0.000 A 
ATOM    198  C   UNL     1      35.242   3.135   0.000  0.00  0.00    +0.000 A 
ATOM    199  C   UNL     1      36.648   3.363   0.000  0.00  0.00    +0.000 C 
ENDBRANCH 189 191
BRANCH 188 200
ATOM    200  O   UNL     1      32.732   3.900   0.000  0.00  0.00    +0.000 OA
BRANCH 200 201
ATOM    201  C   UNL     1      33.255   4.537   0.000  0.00  0.00    +0.000 C 
BRANCH 201 202
ATOM    202  C   UNL     1      32.960   5.306   0.000  0.00  0.00    +0.000 C 
BRANCH 202 203
ATOM    203  O   UNL     1      32.142   5.437   0.000  0.00  0.00    +0.000 OA
ATOM    204  C   UNL     1      31.625   4.799   0.000  0.00  0.00    +0.000 C 
ENDBRANCH 202 203
ENDBRANCH 201 202
ENDBRANCH 200 201
ENDBRANCH 188 200
BRANCH 187 205
ATOM    205  S   UNL     1      31.509   2.381   0.000  0.00  0.00    +0.000 S 
BRANCH 205 206
ATOM    206  P   UNL     1      31.098   3.094   0.000  0.00  0.00    +0.000 P 
ATOM    207  O   UNL     1      30.687   3.807   0.000  0.00  0.00    +0.000 OA
ATOM    208  O   UNL     1      31.812   3.505   0.000  0.00  0.00    +0.000 OA
BRANCH 206 209
ATOM    209  O   UNL     1      30.385   2.683   0.000  0.00  0.00    +0.000 OA
BRANCH 209 210
ATOM    210  C   UNL     1      29.666   3.094   0.000  0.00  0.00    +0.000 C 
BRANCH 210 211
ATOM    211  C   UNL     1      29.666   3.922   0.000  0.00  0.00    +0.000 C 
ATOM    212  C   UNL     1      29.000   4.406   0.000  0.00  0.00    +0.000 C 
ATOM    213  O   UNL     1      28.219   4.146   0.000  0.00  0.00    +0.000 OA
ATOM    214  C   UNL     1      29.255   5.188   0.000  0.00  0.00    +0.000 C 
ATOM    215  C   UNL     1      30.082   5.188   0.000  0.00  0.00    +0.000 C 
ATOM    216  O   UNL     1      30.337   4.406   0.000  0.00  0.00    +0.000 OA
BRANCH 215 217
ATOM    217  N   UNL     1      30.567   5.859   0.000  0.00  0.00    +0.000 N 
ATOM    218  C   UNL     1      30.233   6.621   0.000  0.00  0.00    +0.000 A 
ATOM    219  O   UNL     1      29.409   6.702   0.000  0.00  0.00    +0.000 OA
ATOM    220  N   UNL     1      30.718   7.278   0.000  0.00  0.00    +0.000 NA
ATOM    221  C   UNL     1      31.535   7.197   0.000  0.00  0.00    +0.000 A 
ATOM    222  N   UNL     1      32.020   7.865   0.000  0.00  0.00    +0.000 NA
ATOM    223  C   UNL     1      31.869   6.447   0.000  0.00  0.00    +0.000 A 
ATOM    224  C   UNL     1      31.390   5.772   0.000  0.00  0.00    +0.000 A 
ATOM    225  C   UNL     1      32.693   6.354   0.000  0.00  0.00    +0.000 C 
ENDBRANCH 215 217
BRANCH 214 226
ATOM    226  O   UNL     1      28.770   5.859   0.000  0.00  0.00    +0.000 OA
BRANCH 226 227
ATOM    227  C   UNL     1      27.953   5.772   0.000  0.00  0.00    +0.000 C 
BRANCH 227 228
ATOM    228  C   UNL     1      27.613   5.017   0.000  0.00  0.00    +0.000 C 
BRANCH 228 229
ATOM    229  O   UNL     1      26.795   4.925   0.000  0.00  0.00    +0.000 OA
ATOM    230  C   UNL     1      26.456   4.175   0.000  0.00  0.00    +0.000 C 
ENDBRANCH 228 229
ENDBRANCH 227 228
ENDBRANCH 226 227
ENDBRANCH 214 226
ENDBRANCH 210 211
ENDBRANCH 209 210
ENDBRANCH 206 209
ENDBRANCH 205 206
ENDBRANCH 187 205
ENDBRANCH 185 186
ENDBRANCH 184 185
ENDBRANCH 181 184
ENDBRANCH 180 181
ENDBRANCH 161 180
ENDBRANCH 159 160
ENDBRANCH 158 159
ENDBRANCH 155 158
ENDBRANCH 154 155
ENDBRANCH 136 154
ENDBRANCH 134 135
ENDBRANCH 133 134
ENDBRANCH 130 133
ENDBRANCH 129 130
ENDBRANCH 109 129
ENDBRANCH 107 108
ENDBRANCH 106 107
ENDBRANCH 103 106
ENDBRANCH 102 103
ENDBRANCH  89 102
ENDBRANCH  87  88
ENDBRANCH  86  87
ENDBRANCH  83  86
ENDBRANCH  82  83
ENDBRANCH  69  82
ENDBRANCH  67  68
ENDBRANCH  66  67
ENDBRANCH  63  66
ENDBRANCH  62  63
ENDBRANCH  49  62
ENDBRANCH  47  48
ENDBRANCH  46  47
ENDBRANCH  43  46
ENDBRANCH  42  43
ENDBRANCH  29  42
ENDBRANCH  27  28
ENDBRANCH  26  27
ENDBRANCH  23  26
ENDBRANCH  22  23
ENDBRANCH   7  22
ENDBRANCH   5   6
ENDBRANCH   4   5
ENDBRANCH   1   4
BRANCH   1 231
ATOM    231  S   UNL     1      19.620 -11.280   0.000  0.00  0.00    +0.000 S 
BRANCH 231 233
ATOM    232  C   UNL     1      18.385 -12.085   0.000  0.00  0.00    +0.000 C 
ATOM    233  C   UNL     1      18.796 -11.371   0.000  0.00  0.00    +0.000 C 
ATOM    234  C   UNL     1      18.250 -10.759   0.000  0.00  0.00    +0.000 C 
ATOM    235  C   UNL     1      17.493 -11.092   0.000  0.00  0.00    +0.000 C 
ATOM    236  O   UNL     1      17.579 -11.910   0.000  0.00  0.00    +0.000 OA
BRANCH 235 237
ATOM    237  N   UNL     1      16.780 -10.681   0.000  0.00  0.00    +0.000 N 
ATOM    238  C   UNL     1      16.060 -11.092   0.000  0.00  0.00    +0.000 A 
ATOM    239  O   UNL     1      16.060 -11.914   0.000  0.00  0.00    +0.000 OA
ATOM    240  N   UNL     1      15.347 -10.681   0.000  0.00  0.00    +0.000 NA
ATOM    241  C   UNL     1      15.347  -9.854   0.000  0.00  0.00    +0.000 A 
ATOM    242  O   UNL     1      14.634  -9.443   0.000  0.00  0.00    +0.000 OA
ATOM    243  C   UNL     1      16.060  -9.443   0.000  0.00  0.00    +0.000 A 
ATOM    244  C   UNL     1      16.060  -8.615   0.000  0.00  0.00    +0.000 C 
ATOM    245  C   UNL     1      16.780  -9.854   0.000  0.00  0.00    +0.000 A 
ENDBRANCH 235 237
BRANCH 232 246
ATOM    246  C   UNL     1      18.725 -12.836   0.000  0.00  0.00    +0.000 C 
BRANCH 246 247
ATOM    247  O   UNL     1      18.234 -13.501   0.000  0.00  0.00    +0.000 OA
BRANCH 247 248
ATOM    248  P   UNL     1      17.423 -13.376   0.000  0.00  0.00    +0.000 P 
ATOM    249  O   UNL     1      16.605 -13.246   0.000  0.00  0.00    +0.000 OA
ATOM    250  O   UNL     1      17.553 -12.559   0.000  0.00  0.00    +0.000 OA
BRANCH 248 251
ATOM    251  S   UNL     1      17.292 -14.188   0.000  0.00  0.00    +0.000 S 
BRANCH 251 253
ATOM    252  C   UNL     1      15.829 -14.040   0.000  0.00  0.00    +0.000 C 
ATOM    253  C   UNL     1      16.524 -14.483   0.000  0.00  0.00    +0.000 C 
ATOM    254  C   UNL     1      16.311 -15.279   0.000  0.00  0.00    +0.000 C 
ATOM    255  C   UNL     1      15.486 -15.325   0.000  0.00  0.00    +0.000 C 
ATOM    256  O   UNL     1      15.191 -14.556   0.000  0.00  0.00    +0.000 OA
BRANCH 255 257
ATOM    257  N   UNL     1      15.037 -16.013   0.000  0.00  0.00    +0.000 N 
ATOM    258  C   UNL     1      15.414 -16.753   0.000  0.00  0.00    +0.000 A 
ATOM    259  O   UNL     1      16.233 -16.793   0.000  0.00  0.00    +0.000 OA
ATOM    260  N   UNL     1      14.959 -17.442   0.000  0.00  0.00    +0.000 NA
ATOM    261  C   UNL     1      14.139 -17.402   0.000  0.00  0.00    +0.000 A 
ATOM    262  N   UNL     1      13.685 -18.090   0.000  0.00  0.00    +0.000 NA
ATOM    263  C   UNL     1      13.763 -16.662   0.000  0.00  0.00    +0.000 A 
ATOM    264  C   UNL     1      14.212 -15.973   0.000  0.00  0.00    +0.000 A 
ATOM    265  C   UNL     1      12.938 -16.622   0.000  0.00  0.00    +0.000 C 
ENDBRANCH 255 257
BRANCH 252 266
ATOM    266  C   UNL     1      15.789 -13.208   0.000  0.00  0.00    +0.000 C 
BRANCH 266 267
ATOM    267  O   UNL     1      15.033 -12.875   0.000  0.00  0.00    +0.000 OA
BRANCH 267 268
ATOM    268  P   UNL     1      14.368 -13.359   0.000  0.00  0.00    +0.000 P 
ATOM    269  O   UNL     1      13.697 -13.849   0.000  0.00  0.00    +0.000 OA
ATOM    270  O   UNL     1      14.852 -14.030   0.000  0.00  0.00    +0.000 OA
BRANCH 268 271
ATOM    271  S   UNL     1      13.883 -12.694   0.000  0.00  0.00    +0.000 S 
BRANCH 271 273
ATOM    272  C   UNL     1      12.507 -12.166   0.000  0.00  0.00    +0.000 C 
ATOM    273  C   UNL     1      13.059 -12.779   0.000  0.00  0.00    +0.000 C 
ATOM    274  C   UNL     1      12.649 -13.493   0.000  0.00  0.00    +0.000 C 
ATOM    275  C   UNL     1      11.842 -13.324   0.000  0.00  0.00    +0.000 C 
ATOM    276  O   UNL     1      11.757 -12.500   0.000  0.00  0.00    +0.000 OA
BRANCH 275 277
ATOM    277  N   UNL     1      11.229 -13.876   0.000  0.00  0.00    +0.000 N 
ATOM    278  C   UNL     1      11.398 -14.683   0.000  0.00  0.00    +0.000 A 
ATOM    279  O   UNL     1      12.186 -14.937   0.000  0.00  0.00    +0.000 OA
ATOM    280  N   UNL     1      10.785 -15.235   0.000  0.00  0.00    +0.000 NA
ATOM    281  C   UNL     1      10.003 -14.981   0.000  0.00  0.00    +0.000 A 
ATOM    282  O   UNL     1       9.390 -15.533   0.000  0.00  0.00    +0.000 OA
ATOM    283  C   UNL     1       9.834 -14.174   0.000  0.00  0.00    +0.000 A 
ATOM    284  C   UNL     1       9.046 -13.920   0.000  0.00  0.00    +0.000 C 
ATOM    285  C   UNL     1      10.447 -13.622   0.000  0.00  0.00    +0.000 A 
ENDBRANCH 275 277
BRANCH 272 286
ATOM    286  C   UNL     1      12.682 -11.360   0.000  0.00  0.00    +0.000 C 
BRANCH 286 287
ATOM    287  O   UNL     1      12.069 -10.808   0.000  0.00  0.00    +0.000 OA
BRANCH 287 288
ATOM    288  P   UNL     1      12.238 -10.001   0.000  0.00  0.00    +0.000 P 
ATOM    289  O   UNL     1      12.413  -9.195   0.000  0.00  0.00    +0.000 OA
ATOM    290  O   UNL     1      13.045 -10.170   0.000  0.00  0.00    +0.000 OA
BRANCH 288 291
ATOM    291  S   UNL     1      11.432  -9.826   0.000  0.00  0.00    +0.000 S 
BRANCH 291 293
ATOM    292  C   UNL     1      10.395  -8.790   0.000  0.00  0.00    +0.000 C 
ATOM    293  C   UNL     1      11.177  -9.044   0.000  0.00  0.00    +0.000 C 
ATOM    294  C   UNL     1      11.662  -8.379   0.000  0.00  0.00    +0.000 C 
ATOM    295  C   UNL     1      11.177  -7.708   0.000  0.00  0.00    +0.000 C 
ATOM    296  O   UNL     1      10.395  -7.963   0.000  0.00  0.00    +0.000 OA
BRANCH 295 297
ATOM    297  N   UNL     1      11.508  -6.691   0.000  0.00  0.00    +0.000 N 
ATOM    298  C   UNL     1      12.296  -6.436   0.000  0.00  0.00    +0.000 A 
ATOM    299  N   UNL     1      12.296  -5.614   0.000  0.00  0.00    +0.000 NA
ATOM    300  C   UNL     1      11.508  -5.354   0.000  0.00  0.00    +0.000 A 
ATOM    301  C   UNL     1      11.174  -4.604   0.000  0.00  0.00    +0.000 A 
ATOM    302  O   UNL     1      11.659  -3.933   0.000  0.00  0.00    +0.000 OA
ATOM    303  N   UNL     1      10.351  -4.518   0.000  0.00  0.00    +0.000 NA
ATOM    304  C   UNL     1       9.872  -5.183   0.000  0.00  0.00    +0.000 A 
ATOM    305  N   UNL     1       9.048  -5.098   0.000  0.00  0.00    +0.000 NA
ATOM    306  N   UNL     1      10.206  -5.940   0.000  0.00  0.00    +0.000 NA
ATOM    307  C   UNL     1      11.024  -6.025   0.000  0.00  0.00    +0.000 A 
ENDBRANCH 295 297
BRANCH 292 308
ATOM    308  C   UNL     1       9.328  -9.565   0.000  0.00  0.00    +0.000 C 
BRANCH 308 309
ATOM    309  O   UNL     1       9.439 -10.630   0.000  0.00  0.00    +0.000 OA
BRANCH 309 310
ATOM    310  P   UNL     1      10.190 -10.970   0.000  0.00  0.00    +0.000 P 
ATOM    311  O   UNL     1      10.947 -11.303   0.000  0.00  0.00    +0.000 OA
ATOM    312  O   UNL     1      10.524 -10.213   0.000  0.00  0.00    +0.000 OA
BRANCH 310 313
ATOM    313  S   UNL     1       9.758 -11.948   0.000  0.00  0.00    +0.000 S 
BRANCH 313 315
ATOM    314  C   UNL     1       8.134 -11.447   0.000  0.00  0.00    +0.000 C 
ATOM    315  C   UNL     1       8.687 -12.060   0.000  0.00  0.00    +0.000 C 
ATOM    316  C   UNL     1       8.276 -12.773   0.000  0.00  0.00    +0.000 C 
ATOM    317  C   UNL     1       7.469 -12.604   0.000  0.00  0.00    +0.000 C 
ATOM    318  O   UNL     1       7.384 -11.780   0.000  0.00  0.00    +0.000 OA
BRANCH 317 319
ATOM    319  N   UNL     1       6.856 -13.156   0.000  0.00  0.00    +0.000 N 
ATOM    320  C   UNL     1       6.942 -13.974   0.000  0.00  0.00    +0.000 A 
ATOM    321  N   UNL     1       6.191 -14.314   0.000  0.00  0.00    +0.000 NA
ATOM    322  C   UNL     1       5.633 -13.701   0.000  0.00  0.00    +0.000 A 
ATOM    323  C   UNL     1       4.811 -13.701   0.000  0.00  0.00    +0.000 A 
ATOM    324  N   UNL     1       4.401 -14.414   0.000  0.00  0.00    +0.000 NA
ATOM    325  N   UNL     1       4.401 -12.981   0.000  0.00  0.00    +0.000 NA
ATOM    326  C   UNL     1       4.811 -12.268   0.000  0.00  0.00    +0.000 A 
ATOM    327  N   UNL     1       5.633 -12.268   0.000  0.00  0.00    +0.000 NA
ATOM    328  C   UNL     1       6.050 -12.981   0.000  0.00  0.00    +0.000 A 
ENDBRANCH 317 319
BRANCH 314 329
ATOM    329  C   UNL     1       8.309 -10.640   0.000  0.00  0.00    +0.000 C 
BRANCH 329 330
ATOM    330  O   UNL     1       7.696 -10.088   0.000  0.00  0.00    +0.000 OA
BRANCH 330 331
ATOM    331  P   UNL     1       7.865  -9.281   0.000  0.00  0.00    +0.000 P 
ATOM    332  O   UNL     1       8.133  -8.500   0.000  0.00  0.00    +0.000 OA
ATOM    333  O   UNL     1       8.659  -9.498   0.000  0.00  0.00    +0.000 OA
BRANCH 331 334
ATOM    334  S   UNL     1       6.558  -9.083   0.000  0.00  0.00    +0.000 S 
BRANCH 334 336
ATOM    335  C   UNL     1       5.373  -7.873   0.000  0.00  0.00    +0.000 C 
ATOM    336  C   UNL     1       6.172  -8.081   0.000  0.00  0.00    +0.000 C 
ATOM    337  C   UNL     1       6.618  -7.387   0.000  0.00  0.00    +0.000 C 
ATOM    338  C   UNL     1       6.093  -6.750   0.000  0.00  0.00    +0.000 C 
ATOM    339  O   UNL     1       5.328  -7.054   0.000  0.00  0.00    +0.000 OA
BRANCH 338 340
ATOM    340  N   UNL     1       6.304  -5.954   0.000  0.00  0.00    +0.000 N 
ATOM    341  C   UNL     1       7.099  -5.730   0.000  0.00  0.00    +0.000 A 
ATOM    342  O   UNL     1       7.683  -6.315   0.000  0.00  0.00    +0.000 OA
ATOM    343  N   UNL     1       7.306  -4.939   0.000  0.00  0.00    +0.000 NA
ATOM    344  C   UNL     1       6.721  -4.354   0.000  0.00  0.00    +0.000 A 
ATOM    345  N   UNL     1       6.926  -3.559   0.000  0.00  0.00    +0.000 NA
ATOM    346  C   UNL     1       5.920  -4.578   0.000  0.00  0.00    +0.000 A 
ATOM    347  C   UNL     1       5.719  -5.370   0.000  0.00  0.00    +0.000 A 
ATOM    348  C   UNL     1       5.336  -3.994   0.000  0.00  0.00    +0.000 C 
ENDBRANCH 338 340
BRANCH 335 349
ATOM    349  C   UNL     1       4.735  -8.398   0.000  0.00  0.00    +0.000 C 
BRANCH 349 350
ATOM    350  O   UNL     1       3.963  -8.107   0.000  0.00  0.00    +0.000 OA
BRANCH 350 351
ATOM    351  P   UNL     1       3.828  -7.291   0.000  0.00  0.00    +0.000 P 
ATOM    352  O   UNL     1       3.693  -6.481   0.000  0.00  0.00    +0.000 OA
ATOM    353  O   UNL     1       4.644  -7.162   0.000  0.00  0.00    +0.000 OA
BRANCH 351 354
ATOM    354  S   UNL     1       3.018  -7.426   0.000  0.00  0.00    +0.000 S 
BRANCH 354 356
ATOM    355  C   UNL     1       1.669  -6.838   0.000  0.00  0.00    +0.000 C 
ATOM    356  C   UNL     1       2.493  -6.788   0.000  0.00  0.00    +0.000 C 
ATOM    357  C   UNL     1       2.701  -5.989   0.000  0.00  0.00    +0.000 C 
ATOM    358  C   UNL     1       2.007  -5.543   0.000  0.00  0.00    +0.000 C 
ATOM    359  O   UNL     1       1.370  -6.068   0.000  0.00  0.00    +0.000 OA
BRANCH 358 360
ATOM    360  N   UNL     1       1.957  -4.718   0.000  0.00  0.00    +0.000 N 
ATOM    361  C   UNL     1       1.224  -4.351   0.000  0.00  0.00    +0.000 A 
ATOM    362  O   UNL     1       0.536  -4.803   0.000  0.00  0.00    +0.000 OA
ATOM    363  N   UNL     1       1.174  -3.526   0.000  0.00  0.00    +0.000 NA
ATOM    364  C   UNL     1       1.863  -3.075   0.000  0.00  0.00    +0.000 A 
ATOM    365  O   UNL     1       1.812  -2.250   0.000  0.00  0.00    +0.000 OA
ATOM    366  C   UNL     1       2.602  -3.442   0.000  0.00  0.00    +0.000 A 
ATOM    367  C   UNL     1       2.646  -4.267   0.000  0.00  0.00    +0.000 A 
ATOM    368  C   UNL     1       3.290  -2.990   0.000  0.00  0.00    +0.000 C 
ENDBRANCH 358 360
BRANCH 357 369
ATOM    369  O   UNL     1       3.466  -5.691   0.000  0.00  0.00    +0.000 OA
BRANCH 369 370
ATOM    370  C   UNL     1       3.592  -4.871   0.000  0.00  0.00    +0.000 C 
BRANCH 370 371
ATOM    371  C   UNL     1       4.363  -4.573   0.000  0.00  0.00    +0.000 C 
BRANCH 371 372
ATOM    372  O   UNL     1       4.489  -3.760   0.000  0.00  0.00    +0.000 OA
ATOM    373  C   UNL     1       5.254  -3.455   0.000  0.00  0.00    +0.000 C 
ENDBRANCH 371 372
ENDBRANCH 370 371
ENDBRANCH 369 370
ENDBRANCH 357 369
BRANCH 355 374
ATOM    374  C   UNL     1       1.223  -7.527   0.000  0.00  0.00    +0.000 C 
BRANCH 374 375
ATOM    375  O   UNL     1       0.403  -7.491   0.000  0.00  0.00    +0.000 OA
BRANCH 375 376
ATOM    376  P   UNL     1      -0.043  -8.185   0.000  0.00  0.00    +0.000 P 
ATOM    377  O   UNL     1       0.650  -8.631   0.000  0.00  0.00    +0.000 OA
ATOM    378  O   UNL     1      -0.490  -8.879   0.000  0.00  0.00    +0.000 OA
BRANCH 376 379
ATOM    379  S   UNL     1      -0.743  -7.739   0.000  0.00  0.00    +0.000 S 
BRANCH 379 381
ATOM    380  C   UNL     1      -1.595  -8.934   0.000  0.00  0.00    +0.000 C 
ATOM    381  C   UNL     1      -1.473  -8.118   0.000  0.00  0.00    +0.000 C 
ATOM    382  C   UNL     1      -2.208  -7.749   0.000  0.00  0.00    +0.000 C 
ATOM    383  C   UNL     1      -2.792  -8.333   0.000  0.00  0.00    +0.000 C 
ATOM    384  O   UNL     1      -2.409  -9.073   0.000  0.00  0.00    +0.000 OA
BRANCH 383 385
ATOM    385  N   UNL     1      -3.608  -8.211   0.000  0.00  0.00    +0.000 N 
ATOM    386  C   UNL     1      -3.906  -7.446   0.000  0.00  0.00    +0.000 A 
ATOM    387  O   UNL     1      -3.392  -6.802   0.000  0.00  0.00    +0.000 OA
ATOM    388  N   UNL     1      -4.720  -7.320   0.000  0.00  0.00    +0.000 NA
ATOM    389  C   UNL     1      -5.234  -7.964   0.000  0.00  0.00    +0.000 A 
ATOM    390  N   UNL     1      -6.053  -7.838   0.000  0.00  0.00    +0.000 NA
ATOM    391  C   UNL     1      -4.936  -8.735   0.000  0.00  0.00    +0.000 A 
ATOM    392  C   UNL     1      -4.122  -8.855   0.000  0.00  0.00    +0.000 A 
ATOM    393  C   UNL     1      -5.450  -9.374   0.000  0.00  0.00    +0.000 C 
ENDBRANCH 383 385
BRANCH 380 394
ATOM    394  C   UNL     1      -1.011  -9.518   0.000  0.00  0.00    +0.000 C 
BRANCH 394 395
ATOM    395  O   UNL     1      -1.218 -10.310   0.000  0.00  0.00    +0.000 OA
BRANCH 395 396
ATOM    396  P   UNL     1      -0.633 -10.895   0.000  0.00  0.00    +0.000 P 
ATOM    397  O   UNL     1       0.016 -11.401   0.000  0.00  0.00    +0.000 OA
ATOM    398  O   UNL     1      -0.087 -10.276   0.000  0.00  0.00    +0.000 OA
BRANCH 396 399
ATOM    399  S   UNL     1      -1.230 -11.449   0.000  0.00  0.00    +0.000 S 
BRANCH 399 401
ATOM    400  C   UNL     1      -1.931 -12.673   0.000  0.00  0.00    +0.000 C 
ATOM    401  C   UNL     1      -1.230 -12.270   0.000  0.00  0.00    +0.000 C 
ATOM    402  C   UNL     1      -0.641 -12.858   0.000  0.00  0.00    +0.000 C 
ATOM    403  C   UNL     1      -0.998 -13.589   0.000  0.00  0.00    +0.000 C 
ATOM    404  O   UNL     1      -1.798 -13.468   0.000  0.00  0.00    +0.000 OA
BRANCH 403 405
ATOM    405  N   UNL     1      -0.587 -14.308   0.000  0.00  0.00    +0.000 N 
ATOM    406  C   UNL     1       0.239 -14.348   0.000  0.00  0.00    +0.000 A 
ATOM    407  O   UNL     1       0.650 -13.635   0.000  0.00  0.00    +0.000 OA
ATOM    408  N   UNL     1       0.602 -15.060   0.000  0.00  0.00    +0.000 NA
ATOM    409  C   UNL     1       0.191 -15.779   0.000  0.00  0.00    +0.000 A 
ATOM    410  N   UNL     1       0.562 -16.495   0.000  0.00  0.00    +0.000 NA
ATOM    411  C   UNL     1      -0.645 -15.779   0.000  0.00  0.00    +0.000 A 
ATOM    412  C   UNL     1      -1.005 -15.034   0.000  0.00  0.00    +0.000 A 
ATOM    413  C   UNL     1      -1.085 -16.442   0.000  0.00  0.00    +0.000 C 
ENDBRANCH 403 405
BRANCH 402 414
ATOM    414  O   UNL     1       0.191 -12.700   0.000  0.00  0.00    +0.000 OA
BRANCH 414 415
ATOM    415  C   UNL     1       0.474 -11.927   0.000  0.00  0.00    +0.000 C 
BRANCH 415 416
ATOM    416  C   UNL     1       1.280 -11.783   0.000  0.00  0.00    +0.000 C 
BRANCH 416 417
ATOM    417  O   UNL     1       1.815 -12.413   0.000  0.00  0.00    +0.000 OA
ATOM    418  C   UNL     1       1.532 -13.187   0.000  0.00  0.00    +0.000 C 
ENDBRANCH 416 417
ENDBRANCH 415 416
ENDBRANCH 414 415
ENDBRANCH 402 414
BRANCH 400 419
ATOM    419  C   UNL     1      -2.690 -12.295   0.000  0.00  0.00    +0.000 C 
BRANCH 419 420
ATOM    420  O   UNL     1      -3.375 -12.766   0.000  0.00  0.00    +0.000 OA
BRANCH 420 421
ATOM    421  P   UNL     1      -4.088 -12.349   0.000  0.00  0.00    +0.000 P 
ATOM    422  O   UNL     1      -4.802 -11.938   0.000  0.00  0.00    +0.000 OA
ATOM    423  O   UNL     1      -3.679 -11.643   0.000  0.00  0.00    +0.000 OA
BRANCH 421 424
ATOM    424  S   UNL     1      -4.507 -13.070   0.000  0.00  0.00    +0.000 S 
BRANCH 424 426
ATOM    425  C   UNL     1      -5.816 -12.434   0.000  0.00  0.00    +0.000 C 
ATOM    426  C   UNL     1      -5.313 -13.070   0.000  0.00  0.00    +0.000 C 
ATOM    427  C   UNL     1      -5.790 -13.770   0.000  0.00  0.00    +0.000 C 
ATOM    428  C   UNL     1      -6.585 -13.528   0.000  0.00  0.00    +0.000 C 
ATOM    429  O   UNL     1      -6.585 -12.706   0.000  0.00  0.00    +0.000 OA
BRANCH 428 430
ATOM    430  N   UNL     1      -7.230 -14.025   0.000  0.00  0.00    +0.000 N 
ATOM    431  C   UNL     1      -7.230 -14.847   0.000  0.00  0.00    +0.000 A 
ATOM    432  N   UNL     1      -8.004 -15.113   0.000  0.00  0.00    +0.000 NA
ATOM    433  C   UNL     1      -8.502 -14.460   0.000  0.00  0.00    +0.000 A 
ATOM    434  C   UNL     1      -9.327 -14.388   0.000  0.00  0.00    +0.000 A 
ATOM    435  O   UNL     1      -9.797 -15.059   0.000  0.00  0.00    +0.000 OA
ATOM    436  N   UNL     1      -9.673 -13.638   0.000  0.00  0.00    +0.000 NA
ATOM    437  C   UNL     1      -9.203 -12.961   0.000  0.00  0.00    +0.000 A 
ATOM    438  N   UNL     1      -9.556 -12.217   0.000  0.00  0.00    +0.000 NA
ATOM    439  N   UNL     1      -8.375 -13.033   0.000  0.00  0.00    +0.000 NA
ATOM    440  C   UNL     1      -8.025 -13.783   0.000  0.00  0.00    +0.000 A 
ENDBRANCH 428 430
BRANCH 425 442
ATOM    441  O   UNL     1      -6.157 -11.064   0.000  0.00  0.00    +0.000 OA
ATOM    442  C   UNL     1      -5.579 -11.648   0.000  0.00  0.00    +0.000 C 
ENDBRANCH 425 442
BRANCH 427 443
ATOM    443  O   UNL     1      -5.524 -14.548   0.000  0.00  0.00    +0.000 OA
BRANCH 443 444
ATOM    444  C   UNL     1      -4.702 -14.660   0.000  0.00  0.00    +0.000 C 
BRANCH 444 445
ATOM    445  C   UNL     1      -4.197 -14.014   0.000  0.00  0.00    +0.000 C 
BRANCH 445 446
ATOM    446  O   UNL     1      -3.381 -14.126   0.000  0.00  0.00    +0.000 OA
ATOM    447  C   UNL     1      -2.871 -13.480   0.000  0.00  0.00    +0.000 C 
ENDBRANCH 445 446
ENDBRANCH 444 445
ENDBRANCH 443 444
ENDBRANCH 427 443
ENDBRANCH 424 426
ENDBRANCH 421 424
ENDBRANCH 420 421
ENDBRANCH 419 420
ENDBRANCH 400 419
ENDBRANCH 399 401
ENDBRANCH 396 399
ENDBRANCH 395 396
ENDBRANCH 394 395
ENDBRANCH 380 394
BRANCH 382 448
ATOM    448  O   UNL     1      -2.341  -6.936   0.000  0.00  0.00    +0.000 OA
BRANCH 448 449
ATOM    449  C   UNL     1      -1.703  -6.411   0.000  0.00  0.00    +0.000 C 
BRANCH 449 450
ATOM    450  C   UNL     1      -0.931  -6.702   0.000  0.00  0.00    +0.000 C 
BRANCH 450 451
ATOM    451  O   UNL     1      -0.294  -6.183   0.000  0.00  0.00    +0.000 OA
ATOM    452  C   UNL     1       0.479  -6.474   0.000  0.00  0.00    +0.000 C 
ENDBRANCH 450 451
ENDBRANCH 449 450
ENDBRANCH 448 449
ENDBRANCH 382 448
ENDBRANCH 379 381
ENDBRANCH 376 379
ENDBRANCH 375 376
ENDBRANCH 374 375
ENDBRANCH 355 374
ENDBRANCH 354 356
ENDBRANCH 351 354
ENDBRANCH 350 351
ENDBRANCH 349 350
ENDBRANCH 335 349
BRANCH 337 453
ATOM    453  O   UNL     1       7.686  -7.329   0.000  0.00  0.00    +0.000 OA
BRANCH 453 454
ATOM    454  C   UNL     1       8.143  -8.018   0.000  0.00  0.00    +0.000 C 
BRANCH 454 455
ATOM    455  C   UNL     1       8.962  -7.968   0.000  0.00  0.00    +0.000 C 
BRANCH 455 456
ATOM    456  O   UNL     1       9.335  -7.229   0.000  0.00  0.00    +0.000 OA
ATOM    457  C   UNL     1      10.160  -7.184   0.000  0.00  0.00    +0.000 C 
ENDBRANCH 455 456
ENDBRANCH 454 455
ENDBRANCH 453 454
ENDBRANCH 337 453
ENDBRANCH 334 336
ENDBRANCH 331 334
ENDBRANCH 330 331
ENDBRANCH 329 330
ENDBRANCH 314 329
ENDBRANCH 313 315
ENDBRANCH 310 313
ENDBRANCH 309 310
ENDBRANCH 308 309
ENDBRANCH 292 308
ENDBRANCH 291 293
ENDBRANCH 288 291
ENDBRANCH 287 288
ENDBRANCH 286 287
ENDBRANCH 272 286
ENDBRANCH 271 273
ENDBRANCH 268 271
ENDBRANCH 267 268
ENDBRANCH 266 267
ENDBRANCH 252 266
ENDBRANCH 251 253
ENDBRANCH 248 251
ENDBRANCH 247 248
ENDBRANCH 246 247
ENDBRANCH 232 246
ENDBRANCH 231 233
ENDBRANCH   1 231
TORSDOF 156
REMARK  Name = 
REMARK  156 active torsions:
REMARK  status: ('A' for Active; 'I' for Inactive)
REMARK    1  A    between atoms: O_15  and  C_16
REMARK    2  A    between atoms: O_15  and  P_54
REMARK    3  A    between atoms: C_16  and  C_17
REMARK    4  A    between atoms: C_20  and  O_21
REMARK    5  A    between atoms: O_21  and  C_33
REMARK    6  A    between atoms: C_22  and  N_24
REMARK    7  A    between atoms: C_33  and  C_34
REMARK    8  A    between atoms: C_34  and  O_35
REMARK    9  A    between atoms: O_37  and  C_38
REMARK   10  A    between atoms: O_37  and  P_81
REMARK   11  A    between atoms: C_38  and  C_39
REMARK   12  A    between atoms: C_40  and  S_41
REMARK   13  A    between atoms: S_41  and  P_54
REMARK   14  A    between atoms: C_42  and  O_43
REMARK   15  A    between atoms: O_43  and  C_58
REMARK   16  A    between atoms: C_44  and  N_46
REMARK   17  A    between atoms: C_58  and  C_59
REMARK   18  A    between atoms: C_59  and  O_60
REMARK   19  A    between atoms: O_62  and  C_63
REMARK   20  A    between atoms: O_62  and  P_105
REMARK   21  A    between atoms: C_63  and  C_64
REMARK   22  A    between atoms: C_65  and  S_66
REMARK   23  A    between atoms: S_66  and  P_81
REMARK   24  A    between atoms: C_67  and  O_68
REMARK   25  A    between atoms: O_68  and  C_84
REMARK   26  A    between atoms: C_69  and  N_71
REMARK   27  A    between atoms: C_84  and  C_85
REMARK   28  A    between atoms: C_85  and  O_86
REMARK   29  A    between atoms: O_88  and  C_89
REMARK   30  A    between atoms: O_88  and  P_133
REMARK   31  A    between atoms: C_89  and  C_90
REMARK   32  A    between atoms: C_91  and  S_92
REMARK   33  A    between atoms: S_92  and  P_105
REMARK   34  A    between atoms: C_93  and  O_94
REMARK   35  A    between atoms: O_94  and  C_109
REMARK   36  A    between atoms: C_95  and  N_97
REMARK   37  A    between atoms: C_109  and  C_110
REMARK   38  A    between atoms: C_110  and  O_111
REMARK   39  A    between atoms: O_113  and  C_114
REMARK   40  A    between atoms: O_113  and  P_156
REMARK   41  A    between atoms: C_114  and  C_115
REMARK   42  A    between atoms: C_116  and  S_117
REMARK   43  A    between atoms: S_117  and  P_133
REMARK   44  A    between atoms: C_118  and  O_119
REMARK   45  A    between atoms: O_119  and  C_136
REMARK   46  A    between atoms: C_120  and  N_122
REMARK   47  A    between atoms: C_136  and  C_137
REMARK   48  A    between atoms: C_137  and  O_138
REMARK   49  A    between atoms: O_140  and  C_141
REMARK   50  A    between atoms: O_140  and  P_177
REMARK   51  A    between atoms: C_141  and  C_142
REMARK   52  A    between atoms: C_143  and  S_144
REMARK   53  A    between atoms: S_144  and  P_156
REMARK   54  A    between atoms: C_146  and  N_148
REMARK   55  A    between atoms: O_160  and  C_161
REMARK   56  A    between atoms: O_160  and  P_197
REMARK   57  A    between atoms: C_161  and  C_162
REMARK   58  A    between atoms: C_163  and  S_164
REMARK   59  A    between atoms: S_164  and  P_177
REMARK   60  A    between atoms: C_166  and  N_168
REMARK   61  A    between atoms: O_180  and  C_181
REMARK   62  A    between atoms: O_180  and  P_216
REMARK   63  A    between atoms: C_181  and  C_182
REMARK   64  A    between atoms: C_183  and  S_184
REMARK   65  A    between atoms: S_184  and  P_197
REMARK   66  A    between atoms: C_186  and  N_188
REMARK   67  A    between atoms: O_200  and  C_201
REMARK   68  A    between atoms: O_200  and  P_239
REMARK   69  A    between atoms: C_201  and  C_202
REMARK   70  A    between atoms: C_203  and  S_204
REMARK   71  A    between atoms: S_204  and  P_216
REMARK   72  A    between atoms: C_206  and  N_208
REMARK   73  A    between atoms: O_220  and  C_221
REMARK   74  A    between atoms: O_220  and  P_259
REMARK   75  A    between atoms: C_221  and  C_222
REMARK   76  A    between atoms: C_223  and  S_224
REMARK   77  A    between atoms: S_224  and  P_239
REMARK   78  A    between atoms: C_226  and  N_228
REMARK   79  A    between atoms: O_242  and  C_243
REMARK   80  A    between atoms: O_242  and  P_278
REMARK   81  A    between atoms: C_243  and  C_244
REMARK   82  A    between atoms: C_245  and  S_246
REMARK   83  A    between atoms: S_246  and  P_259
REMARK   84  A    between atoms: C_248  and  N_250
REMARK   85  A    between atoms: O_262  and  C_263
REMARK   86  A    between atoms: O_262  and  P_299
REMARK   87  A    between atoms: C_263  and  C_264
REMARK   88  A    between atoms: C_265  and  S_266
REMARK   89  A    between atoms: S_266  and  P_278
REMARK   90  A    between atoms: C_268  and  N_270
REMARK   91  A    between atoms: O_282  and  C_283
REMARK   92  A    between atoms: O_282  and  P_321
REMARK   93  A    between atoms: C_283  and  C_284
REMARK   94  A    between atoms: C_285  and  S_286
REMARK   95  A    between atoms: S_286  and  P_299
REMARK   96  A    between atoms: C_288  and  N_290
REMARK   97  A    between atoms: O_302  and  C_303
REMARK   98  A    between atoms: O_302  and  P_342
REMARK   99  A    between atoms: C_303  and  C_304
REMARK  100  A    between atoms: C_305  and  S_306
REMARK  101  A    between atoms: S_306  and  P_321
REMARK  102  A    between atoms: C_308  and  N_310
REMARK  103  A    between atoms: O_324  and  C_325
REMARK  104  A    between atoms: O_324  and  P_362
REMARK  105  A    between atoms: C_325  and  C_326
REMARK  106  A    between atoms: C_327  and  S_328
REMARK  107  A    between atoms: S_328  and  P_342
REMARK  108  A    between atoms: C_330  and  N_332
REMARK  109  A    between atoms: O_345  and  C_346
REMARK  110  A    between atoms: O_345  and  P_387
REMARK  111  A    between atoms: C_346  and  C_347
REMARK  112  A    between atoms: C_348  and  S_349
REMARK  113  A    between atoms: S_349  and  P_362
REMARK  114  A    between atoms: C_350  and  O_351
REMARK  115  A    between atoms: O_351  and  C_366
REMARK  116  A    between atoms: C_352  and  N_354
REMARK  117  A    between atoms: C_366  and  C_367
REMARK  118  A    between atoms: C_367  and  O_368
REMARK  119  A    between atoms: O_370  and  C_371
REMARK  120  A    between atoms: O_370  and  P_412
REMARK  121  A    between atoms: C_371  and  C_372
REMARK  122  A    between atoms: C_373  and  S_374
REMARK  123  A    between atoms: S_374  and  P_387
REMARK  124  A    between atoms: C_375  and  O_376
REMARK  125  A    between atoms: O_376  and  C_391
REMARK  126  A    between atoms: C_377  and  N_379
REMARK  127  A    between atoms: C_391  and  C_392
REMARK  128  A    between atoms: C_392  and  O_393
REMARK  129  A    between atoms: O_395  and  C_396
REMARK  130  A    between atoms: O_395  and  P_437
REMARK  131  A    between atoms: C_396  and  C_397
REMARK  132  A    between atoms: C_398  and  S_399
REMARK  133  A    between atoms: S_399  and  P_412
REMARK  134  A    between atoms: C_400  and  O_401
REMARK  135  A    between atoms: O_401  and  C_416
REMARK  136  A    between atoms: C_402  and  N_404
REMARK  137  A    between atoms: C_416  and  C_417
REMARK  138  A    between atoms: C_417  and  O_418
REMARK  139  A    between atoms: O_420  and  C_421
REMARK  140  A    between atoms: O_420  and  P_465
REMARK  141  A    between atoms: C_421  and  C_422
REMARK  142  A    between atoms: C_423  and  S_424
REMARK  143  A    between atoms: S_424  and  P_437
REMARK  144  A    between atoms: C_425  and  O_426
REMARK  145  A    between atoms: O_426  and  C_441
REMARK  146  A    between atoms: C_427  and  N_429
REMARK  147  A    between atoms: C_441  and  C_442
REMARK  148  A    between atoms: C_442  and  O_443
REMARK  149  A    between atoms: C_446  and  C_447
REMARK  150  A    between atoms: C_448  and  S_449
REMARK  151  A    between atoms: S_449  and  P_465
REMARK  152  A    between atoms: C_450  and  O_451
REMARK  153  A    between atoms: O_451  and  C_468
REMARK  154  A    between atoms: C_452  and  N_454
REMARK  155  A    between atoms: C_468  and  C_469
REMARK  156  A    between atoms: C_469  and  O_470
REMARK                            x       y       z     vdW  Elec       q    Type
REMARK                         _______ _______ _______ _____ _____    ______ ____
ROOT
ATOM      1 NA   UNL     1      -8.656 -16.531   0.000  0.00  0.00    +0.000 Na
ENDROOT
TORSDOF 0
REMARK  Name = 
REMARK  156 active torsions:
REMARK  status: ('A' for Active; 'I' for Inactive)
REMARK    1  A    between atoms: O_15  and  C_16
REMARK    2  A    between atoms: O_15  and  P_54
REMARK    3  A    between atoms: C_16  and  C_17
REMARK    4  A    between atoms: C_20  and  O_21
REMARK    5  A    between atoms: O_21  and  C_33
REMARK    6  A    between atoms: C_22  and  N_24
REMARK    7  A    between atoms: C_33  and  C_34
REMARK    8  A    between atoms: C_34  and  O_35
REMARK    9  A    between atoms: O_37  and  C_38
REMARK   10  A    between atoms: O_37  and  P_81
REMARK   11  A    between atoms: C_38  and  C_39
REMARK   12  A    between atoms: C_40  and  S_41
REMARK   13  A    between atoms: S_41  and  P_54
REMARK   14  A    between atoms: C_42  and  O_43
REMARK   15  A    between atoms: O_43  and  C_58
REMARK   16  A    between atoms: C_44  and  N_46
REMARK   17  A    between atoms: C_58  and  C_59
REMARK   18  A    between atoms: C_59  and  O_60
REMARK   19  A    between atoms: O_62  and  C_63
REMARK   20  A    between atoms: O_62  and  P_105
REMARK   21  A    between atoms: C_63  and  C_64
REMARK   22  A    between atoms: C_65  and  S_66
REMARK   23  A    between atoms: S_66  and  P_81
REMARK   24  A    between atoms: C_67  and  O_68
REMARK   25  A    between atoms: O_68  and  C_84
REMARK   26  A    between atoms: C_69  and  N_71
REMARK   27  A    between atoms: C_84  and  C_85
REMARK   28  A    between atoms: C_85  and  O_86
REMARK   29  A    between atoms: O_88  and  C_89
REMARK   30  A    between atoms: O_88  and  P_133
REMARK   31  A    between atoms: C_89  and  C_90
REMARK   32  A    between atoms: C_91  and  S_92
REMARK   33  A    between atoms: S_92  and  P_105
REMARK   34  A    between atoms: C_93  and  O_94
REMARK   35  A    between atoms: O_94  and  C_109
REMARK   36  A    between atoms: C_95  and  N_97
REMARK   37  A    between atoms: C_109  and  C_110
REMARK   38  A    between atoms: C_110  and  O_111
REMARK   39  A    between atoms: O_113  and  C_114
REMARK   40  A    between atoms: O_113  and  P_156
REMARK   41  A    between atoms: C_114  and  C_115
REMARK   42  A    between atoms: C_116  and  S_117
REMARK   43  A    between atoms: S_117  and  P_133
REMARK   44  A    between atoms: C_118  and  O_119
REMARK   45  A    between atoms: O_119  and  C_136
REMARK   46  A    between atoms: C_120  and  N_122
REMARK   47  A    between atoms: C_136  and  C_137
REMARK   48  A    between atoms: C_137  and  O_138
REMARK   49  A    between atoms: O_140  and  C_141
REMARK   50  A    between atoms: O_140  and  P_177
REMARK   51  A    between atoms: C_141  and  C_142
REMARK   52  A    between atoms: C_143  and  S_144
REMARK   53  A    between atoms: S_144  and  P_156
REMARK   54  A    between atoms: C_146  and  N_148
REMARK   55  A    between atoms: O_160  and  C_161
REMARK   56  A    between atoms: O_160  and  P_197
REMARK   57  A    between atoms: C_161  and  C_162
REMARK   58  A    between atoms: C_163  and  S_164
REMARK   59  A    between atoms: S_164  and  P_177
REMARK   60  A    between atoms: C_166  and  N_168
REMARK   61  A    between atoms: O_180  and  C_181
REMARK   62  A    between atoms: O_180  and  P_216
REMARK   63  A    between atoms: C_181  and  C_182
REMARK   64  A    between atoms: C_183  and  S_184
REMARK   65  A    between atoms: S_184  and  P_197
REMARK   66  A    between atoms: C_186  and  N_188
REMARK   67  A    between atoms: O_200  and  C_201
REMARK   68  A    between atoms: O_200  and  P_239
REMARK   69  A    between atoms: C_201  and  C_202
REMARK   70  A    between atoms: C_203  and  S_204
REMARK   71  A    between atoms: S_204  and  P_216
REMARK   72  A    between atoms: C_206  and  N_208
REMARK   73  A    between atoms: O_220  and  C_221
REMARK   74  A    between atoms: O_220  and  P_259
REMARK   75  A    between atoms: C_221  and  C_222
REMARK   76  A    between atoms: C_223  and  S_224
REMARK   77  A    between atoms: S_224  and  P_239
REMARK   78  A    between atoms: C_226  and  N_228
REMARK   79  A    between atoms: O_242  and  C_243
REMARK   80  A    between atoms: O_242  and  P_278
REMARK   81  A    between atoms: C_243  and  C_244
REMARK   82  A    between atoms: C_245  and  S_246
REMARK   83  A    between atoms: S_246  and  P_259
REMARK   84  A    between atoms: C_248  and  N_250
REMARK   85  A    between atoms: O_262  and  C_263
REMARK   86  A    between atoms: O_262  and  P_299
REMARK   87  A    between atoms: C_263  and  C_264
REMARK   88  A    between atoms: C_265  and  S_266
REMARK   89  A    between atoms: S_266  and  P_278
REMARK   90  A    between atoms: C_268  and  N_270
REMARK   91  A    between atoms: O_282  and  C_283
REMARK   92  A    between atoms: O_282  and  P_321
REMARK   93  A    between atoms: C_283  and  C_284
REMARK   94  A    between atoms: C_285  and  S_286
REMARK   95  A    between atoms: S_286  and  P_299
REMARK   96  A    between atoms: C_288  and  N_290
REMARK   97  A    between atoms: O_302  and  C_303
REMARK   98  A    between atoms: O_302  and  P_342
REMARK   99  A    between atoms: C_303  and  C_304
REMARK  100  A    between atoms: C_305  and  S_306
REMARK  101  A    between atoms: S_306  and  P_321
REMARK  102  A    between atoms: C_308  and  N_310
REMARK  103  A    between atoms: O_324  and  C_325
REMARK  104  A    between atoms: O_324  and  P_362
REMARK  105  A    between atoms: C_325  and  C_326
REMARK  106  A    between atoms: C_327  and  S_328
REMARK  107  A    between atoms: S_328  and  P_342
REMARK  108  A    between atoms: C_330  and  N_332
REMARK  109  A    between atoms: O_345  and  C_346
REMARK  110  A    between atoms: O_345  and  P_387
REMARK  111  A    between atoms: C_346  and  C_347
REMARK  112  A    between atoms: C_348  and  S_349
REMARK  113  A    between atoms: S_349  and  P_362
REMARK  114  A    between atoms: C_350  and  O_351
REMARK  115  A    between atoms: O_351  and  C_366
REMARK  116  A    between atoms: C_352  and  N_354
REMARK  117  A    between atoms: C_366  and  C_367
REMARK  118  A    between atoms: C_367  and  O_368
REMARK  119  A    between atoms: O_370  and  C_371
REMARK  120  A    between atoms: O_370  and  P_412
REMARK  121  A    between atoms: C_371  and  C_372
REMARK  122  A    between atoms: C_373  and  S_374
REMARK  123  A    between atoms: S_374  and  P_387
REMARK  124  A    between atoms: C_375  and  O_376
REMARK  125  A    between atoms: O_376  and  C_391
REMARK  126  A    between atoms: C_377  and  N_379
REMARK  127  A    between atoms: C_391  and  C_392
REMARK  128  A    between atoms: C_392  and  O_393
REMARK  129  A    between atoms: O_395  and  C_396
REMARK  130  A    between atoms: O_395  and  P_437
REMARK  131  A    between atoms: C_396  and  C_397
REMARK  132  A    between atoms: C_398  and  S_399
REMARK  133  A    between atoms: S_399  and  P_412
REMARK  134  A    between atoms: C_400  and  O_401
REMARK  135  A    between atoms: O_401  and  C_416
REMARK  136  A    between atoms: C_402  and  N_404
REMARK  137  A    between atoms: C_416  and  C_417
REMARK  138  A    between atoms: C_417  and  O_418
REMARK  139  A    between atoms: O_420  and  C_421
REMARK  140  A    between atoms: O_420  and  P_465
REMARK  141  A    between atoms: C_421  and  C_422
REMARK  142  A    between atoms: C_423  and  S_424
REMARK  143  A    between atoms: S_424  and  P_437
REMARK  144  A    between atoms: C_425  and  O_426
REMARK  145  A    between atoms: O_426  and  C_441
REMARK  146  A    between atoms: C_427  and  N_429
REMARK  147  A    between atoms: C_441  and  C_442
REMARK  148  A    between atoms: C_442  and  O_443
REMARK  149  A    between atoms: C_446  and  C_447
REMARK  150  A    between atoms: C_448  and  S_449
REMARK  151  A    between atoms: S_449  and  P_465
REMARK  152  A    between atoms: C_450  and  O_451
REMARK  153  A    between atoms: O_451  and  C_468
REMARK  154  A    between atoms: C_452  and  N_454
REMARK  155  A    between atoms: C_468  and  C_469
REMARK  156  A    between atoms: C_469  and  O_470
REMARK                            x       y       z     vdW  Elec       q    Type
REMARK                         _______ _______ _______ _____ _____    ______ ____
ROOT
ATOM      1 NA   UNL     1      24.031 -21.531   0.000  0.00  0.00    +0.000 Na
ENDROOT
TORSDOF 0
REMARK  Name = 
REMARK  156 active torsions:
REMARK  status: ('A' for Active; 'I' for Inactive)
REMARK    1  A    between atoms: O_15  and  C_16
REMARK    2  A    between atoms: O_15  and  P_54
REMARK    3  A    between atoms: C_16  and  C_17
REMARK    4  A    between atoms: C_20  and  O_21
REMARK    5  A    between atoms: O_21  and  C_33
REMARK    6  A    between atoms: C_22  and  N_24
REMARK    7  A    between atoms: C_33  and  C_34
REMARK    8  A    between atoms: C_34  and  O_35
REMARK    9  A    between atoms: O_37  and  C_38
REMARK   10  A    between atoms: O_37  and  P_81
REMARK   11  A    between atoms: C_38  and  C_39
REMARK   12  A    between atoms: C_40  and  S_41
REMARK   13  A    between atoms: S_41  and  P_54
REMARK   14  A    between atoms: C_42  and  O_43
REMARK   15  A    between atoms: O_43  and  C_58
REMARK   16  A    between atoms: C_44  and  N_46
REMARK   17  A    between atoms: C_58  and  C_59
REMARK   18  A    between atoms: C_59  and  O_60
REMARK   19  A    between atoms: O_62  and  C_63
REMARK   20  A    between atoms: O_62  and  P_105
REMARK   21  A    between atoms: C_63  and  C_64
REMARK   22  A    between atoms: C_65  and  S_66
REMARK   23  A    between atoms: S_66  and  P_81
REMARK   24  A    between atoms: C_67  and  O_68
REMARK   25  A    between atoms: O_68  and  C_84
REMARK   26  A    between atoms: C_69  and  N_71
REMARK   27  A    between atoms: C_84  and  C_85
REMARK   28  A    between atoms: C_85  and  O_86
REMARK   29  A    between atoms: O_88  and  C_89
REMARK   30  A    between atoms: O_88  and  P_133
REMARK   31  A    between atoms: C_89  and  C_90
REMARK   32  A    between atoms: C_91  and  S_92
REMARK   33  A    between atoms: S_92  and  P_105
REMARK   34  A    between atoms: C_93  and  O_94
REMARK   35  A    between atoms: O_94  and  C_109
REMARK   36  A    between atoms: C_95  and  N_97
REMARK   37  A    between atoms: C_109  and  C_110
REMARK   38  A    between atoms: C_110  and  O_111
REMARK   39  A    between atoms: O_113  and  C_114
REMARK   40  A    between atoms: O_113  and  P_156
REMARK   41  A    between atoms: C_114  and  C_115
REMARK   42  A    between atoms: C_116  and  S_117
REMARK   43  A    between atoms: S_117  and  P_133
REMARK   44  A    between atoms: C_118  and  O_119
REMARK   45  A    between atoms: O_119  and  C_136
REMARK   46  A    between atoms: C_120  and  N_122
REMARK   47  A    between atoms: C_136  and  C_137
REMARK   48  A    between atoms: C_137  and  O_138
REMARK   49  A    between atoms: O_140  and  C_141
REMARK   50  A    between atoms: O_140  and  P_177
REMARK   51  A    between atoms: C_141  and  C_142
REMARK   52  A    between atoms: C_143  and  S_144
REMARK   53  A    between atoms: S_144  and  P_156
REMARK   54  A    between atoms: C_146  and  N_148
REMARK   55  A    between atoms: O_160  and  C_161
REMARK   56  A    between atoms: O_160  and  P_197
REMARK   57  A    between atoms: C_161  and  C_162
REMARK   58  A    between atoms: C_163  and  S_164
REMARK   59  A    between atoms: S_164  and  P_177
REMARK   60  A    between atoms: C_166  and  N_168
REMARK   61  A    between atoms: O_180  and  C_181
REMARK   62  A    between atoms: O_180  and  P_216
REMARK   63  A    between atoms: C_181  and  C_182
REMARK   64  A    between atoms: C_183  and  S_184
REMARK   65  A    between atoms: S_184  and  P_197
REMARK   66  A    between atoms: C_186  and  N_188
REMARK   67  A    between atoms: O_200  and  C_201
REMARK   68  A    between atoms: O_200  and  P_239
REMARK   69  A    between atoms: C_201  and  C_202
REMARK   70  A    between atoms: C_203  and  S_204
REMARK   71  A    between atoms: S_204  and  P_216
REMARK   72  A    between atoms: C_206  and  N_208
REMARK   73  A    between atoms: O_220  and  C_221
REMARK   74  A    between atoms: O_220  and  P_259
REMARK   75  A    between atoms: C_221  and  C_222
REMARK   76  A    between atoms: C_223  and  S_224
REMARK   77  A    between atoms: S_224  and  P_239
REMARK   78  A    between atoms: C_226  and  N_228
REMARK   79  A    between atoms: O_242  and  C_243
REMARK   80  A    between atoms: O_242  and  P_278
REMARK   81  A    between atoms: C_243  and  C_244
REMARK   82  A    between atoms: C_245  and  S_246
REMARK   83  A    between atoms: S_246  and  P_259
REMARK   84  A    between atoms: C_248  and  N_250
REMARK   85  A    between atoms: O_262  and  C_263
REMARK   86  A    between atoms: O_262  and  P_299
REMARK   87  A    between atoms: C_263  and  C_264
REMARK   88  A    between atoms: C_265  and  S_266
REMARK   89  A    between atoms: S_266  and  P_278
REMARK   90  A    between atoms: C_268  and  N_270
REMARK   91  A    between atoms: O_282  and  C_283
REMARK   92  A    between atoms: O_282  and  P_321
REMARK   93  A    between atoms: C_283  and  C_284
REMARK   94  A    between atoms: C_285  and  S_286
REMARK   95  A    between atoms: S_286  and  P_299
REMARK   96  A    between atoms: C_288  and  N_290
REMARK   97  A    between atoms: O_302  and  C_303
REMARK   98  A    between atoms: O_302  and  P_342
REMARK   99  A    between atoms: C_303  and  C_304
REMARK  100  A    between atoms: C_305  and  S_306
REMARK  101  A    between atoms: S_306  and  P_321
REMARK  102  A    between atoms: C_308  and  N_310
REMARK  103  A    between atoms: O_324  and  C_325
REMARK  104  A    between atoms: O_324  and  P_362
REMARK  105  A    between atoms: C_325  and  C_326
REMARK  106  A    between atoms: C_327  and  S_328
REMARK  107  A    between atoms: S_328  and  P_342
REMARK  108  A    between atoms: C_330  and  N_332
REMARK  109  A    between atoms: O_345  and  C_346
REMARK  110  A    between atoms: O_345  and  P_387
REMARK  111  A    between atoms: C_346  and  C_347
REMARK  112  A    between atoms: C_348  and  S_349
REMARK  113  A    between atoms: S_349  and  P_362
REMARK  114  A    between atoms: C_350  and  O_351
REMARK  115  A    between atoms: O_351  and  C_366
REMARK  116  A    between atoms: C_352  and  N_354
REMARK  117  A    between atoms: C_366  and  C_367
REMARK  118  A    between atoms: C_367  and  O_368
REMARK  119  A    between atoms: O_370  and  C_371
REMARK  120  A    between atoms: O_370  and  P_412
REMARK  121  A    between atoms: C_371  and  C_372
REMARK  122  A    between atoms: C_373  and  S_374
REMARK  123  A    between atoms: S_374  and  P_387
REMARK  124  A    between atoms: C_375  and  O_376
REMARK  125  A    between atoms: O_376  and  C_391
REMARK  126  A    between atoms: C_377  and  N_379
REMARK  127  A    between atoms: C_391  and  C_392
REMARK  128  A    between atoms: C_392  and  O_393
REMARK  129  A    between atoms: O_395  and  C_396
REMARK  130  A    between atoms: O_395  and  P_437
REMARK  131  A    between atoms: C_396  and  C_397
REMARK  132  A    between atoms: C_398  and  S_399
REMARK  133  A    between atoms: S_399  and  P_412
REMARK  134  A    between atoms: C_400  and  O_401
REMARK  135  A    between atoms: O_401  and  C_416
REMARK  136  A    between atoms: C_402  and  N_404
REMARK  137  A    between atoms: C_416  and  C_417
REMARK  138  A    between atoms: C_417  and  O_418
REMARK  139  A    between atoms: O_420  and  C_421
REMARK  140  A    between atoms: O_420  and  P_465
REMARK  141  A    between atoms: C_421  and  C_422
REMARK  142  A    between atoms: C_423  and  S_424
REMARK  143  A    between atoms: S_424  and  P_437
REMARK  144  A    between atoms: C_425  and  O_426
REMARK  145  A    between atoms: O_426  and  C_441
REMARK  146  A    between atoms: C_427  and  N_429
REMARK  147  A    between atoms: C_441  and  C_442
REMARK  148  A    between atoms: C_442  and  O_443
REMARK  149  A    between atoms: C_446  and  C_447
REMARK  150  A    between atoms: C_448  and  S_449
REMARK  151  A    between atoms: S_449  and  P_465
REMARK  152  A    between atoms: C_450  and  O_451
REMARK  153  A    between atoms: O_451  and  C_468
REMARK  154  A    between atoms: C_452  and  N_454
REMARK  155  A    between atoms: C_468  and  C_469
REMARK  156  A    between atoms: C_469  and  O_470
REMARK                            x       y       z     vdW  Elec       q    Type
REMARK                         _______ _______ _______ _____ _____    ______ ____
ROOT
ATOM      1 NA   UNL     1      26.031 -21.625   0.000  0.00  0.00    +0.000 Na
ENDROOT
TORSDOF 0
REMARK  Name = 
REMARK  156 active torsions:
REMARK  status: ('A' for Active; 'I' for Inactive)
REMARK    1  A    between atoms: O_15  and  C_16
REMARK    2  A    between atoms: O_15  and  P_54
REMARK    3  A    between atoms: C_16  and  C_17
REMARK    4  A    between atoms: C_20  and  O_21
REMARK    5  A    between atoms: O_21  and  C_33
REMARK    6  A    between atoms: C_22  and  N_24
REMARK    7  A    between atoms: C_33  and  C_34
REMARK    8  A    between atoms: C_34  and  O_35
REMARK    9  A    between atoms: O_37  and  C_38
REMARK   10  A    between atoms: O_37  and  P_81
REMARK   11  A    between atoms: C_38  and  C_39
REMARK   12  A    between atoms: C_40  and  S_41
REMARK   13  A    between atoms: S_41  and  P_54
REMARK   14  A    between atoms: C_42  and  O_43
REMARK   15  A    between atoms: O_43  and  C_58
REMARK   16  A    between atoms: C_44  and  N_46
REMARK   17  A    between atoms: C_58  and  C_59
REMARK   18  A    between atoms: C_59  and  O_60
REMARK   19  A    between atoms: O_62  and  C_63
REMARK   20  A    between atoms: O_62  and  P_105
REMARK   21  A    between atoms: C_63  and  C_64
REMARK   22  A    between atoms: C_65  and  S_66
REMARK   23  A    between atoms: S_66  and  P_81
REMARK   24  A    between atoms: C_67  and  O_68
REMARK   25  A    between atoms: O_68  and  C_84
REMARK   26  A    between atoms: C_69  and  N_71
REMARK   27  A    between atoms: C_84  and  C_85
REMARK   28  A    between atoms: C_85  and  O_86
REMARK   29  A    between atoms: O_88  and  C_89
REMARK   30  A    between atoms: O_88  and  P_133
REMARK   31  A    between atoms: C_89  and  C_90
REMARK   32  A    between atoms: C_91  and  S_92
REMARK   33  A    between atoms: S_92  and  P_105
REMARK   34  A    between atoms: C_93  and  O_94
REMARK   35  A    between atoms: O_94  and  C_109
REMARK   36  A    between atoms: C_95  and  N_97
REMARK   37  A    between atoms: C_109  and  C_110
REMARK   38  A    between atoms: C_110  and  O_111
REMARK   39  A    between atoms: O_113  and  C_114
REMARK   40  A    between atoms: O_113  and  P_156
REMARK   41  A    between atoms: C_114  and  C_115
REMARK   42  A    between atoms: C_116  and  S_117
REMARK   43  A    between atoms: S_117  and  P_133
REMARK   44  A    between atoms: C_118  and  O_119
REMARK   45  A    between atoms: O_119  and  C_136
REMARK   46  A    between atoms: C_120  and  N_122
REMARK   47  A    between atoms: C_136  and  C_137
REMARK   48  A    between atoms: C_137  and  O_138
REMARK   49  A    between atoms: O_140  and  C_141
REMARK   50  A    between atoms: O_140  and  P_177
REMARK   51  A    between atoms: C_141  and  C_142
REMARK   52  A    between atoms: C_143  and  S_144
REMARK   53  A    between atoms: S_144  and  P_156
REMARK   54  A    between atoms: C_146  and  N_148
REMARK   55  A    between atoms: O_160  and  C_161
REMARK   56  A    between atoms: O_160  and  P_197
REMARK   57  A    between atoms: C_161  and  C_162
REMARK   58  A    between atoms: C_163  and  S_164
REMARK   59  A    between atoms: S_164  and  P_177
REMARK   60  A    between atoms: C_166  and  N_168
REMARK   61  A    between atoms: O_180  and  C_181
REMARK   62  A    between atoms: O_180  and  P_216
REMARK   63  A    between atoms: C_181  and  C_182
REMARK   64  A    between atoms: C_183  and  S_184
REMARK   65  A    between atoms: S_184  and  P_197
REMARK   66  A    between atoms: C_186  and  N_188
REMARK   67  A    between atoms: O_200  and  C_201
REMARK   68  A    between atoms: O_200  and  P_239
REMARK   69  A    between atoms: C_201  and  C_202
REMARK   70  A    between atoms: C_203  and  S_204
REMARK   71  A    between atoms: S_204  and  P_216
REMARK   72  A    between atoms: C_206  and  N_208
REMARK   73  A    between atoms: O_220  and  C_221
REMARK   74  A    between atoms: O_220  and  P_259
REMARK   75  A    between atoms: C_221  and  C_222
REMARK   76  A    between atoms: C_223  and  S_224
REMARK   77  A    between atoms: S_224  and  P_239
REMARK   78  A    between atoms: C_226  and  N_228
REMARK   79  A    between atoms: O_242  and  C_243
REMARK   80  A    between atoms: O_242  and  P_278
REMARK   81  A    between atoms: C_243  and  C_244
REMARK   82  A    between atoms: C_245  and  S_246
REMARK   83  A    between atoms: S_246  and  P_259
REMARK   84  A    between atoms: C_248  and  N_250
REMARK   85  A    between atoms: O_262  and  C_263
REMARK   86  A    between atoms: O_262  and  P_299
REMARK   87  A    between atoms: C_263  and  C_264
REMARK   88  A    between atoms: C_265  and  S_266
REMARK   89  A    between atoms: S_266  and  P_278
REMARK   90  A    between atoms: C_268  and  N_270
REMARK   91  A    between atoms: O_282  and  C_283
REMARK   92  A    between atoms: O_282  and  P_321
REMARK   93  A    between atoms: C_283  and  C_284
REMARK   94  A    between atoms: C_285  and  S_286
REMARK   95  A    between atoms: S_286  and  P_299
REMARK   96  A    between atoms: C_288  and  N_290
REMARK   97  A    between atoms: O_302  and  C_303
REMARK   98  A    between atoms: O_302  and  P_342
REMARK   99  A    between atoms: C_303  and  C_304
REMARK  100  A    between atoms: C_305  and  S_306
REMARK  101  A    between atoms: S_306  and  P_321
REMARK  102  A    between atoms: C_308  and  N_310
REMARK  103  A    between atoms: O_324  and  C_325
REMARK  104  A    between atoms: O_324  and  P_362
REMARK  105  A    between atoms: C_325  and  C_326
REMARK  106  A    between atoms: C_327  and  S_328
REMARK  107  A    between atoms: S_328  and  P_342
REMARK  108  A    between atoms: C_330  and  N_332
REMARK  109  A    between atoms: O_345  and  C_346
REMARK  110  A    between atoms: O_345  and  P_387
REMARK  111  A    between atoms: C_346  and  C_347
REMARK  112  A    between atoms: C_348  and  S_349
REMARK  113  A    between atoms: S_349  and  P_362
REMARK  114  A    between atoms: C_350  and  O_351
REMARK  115  A    between atoms: O_351  and  C_366
REMARK  116  A    between atoms: C_352  and  N_354
REMARK  117  A    between atoms: C_366  and  C_367
REMARK  118  A    between atoms: C_367  and  O_368
REMARK  119  A    between atoms: O_370  and  C_371
REMARK  120  A    between atoms: O_370  and  P_412
REMARK  121  A    between atoms: C_371  and  C_372
REMARK  122  A    between atoms: C_373  and  S_374
REMARK  123  A    between atoms: S_374  and  P_387
REMARK  124  A    between atoms: C_375  and  O_376
REMARK  125  A    between atoms: O_376  and  C_391
REMARK  126  A    between atoms: C_377  and  N_379
REMARK  127  A    between atoms: C_391  and  C_392
REMARK  128  A    between atoms: C_392  and  O_393
REMARK  129  A    between atoms: O_395  and  C_396
REMARK  130  A    between atoms: O_395  and  P_437
REMARK  131  A    between atoms: C_396  and  C_397
REMARK  132  A    between atoms: C_398  and  S_399
REMARK  133  A    between atoms: S_399  and  P_412
REMARK  134  A    between atoms: C_400  and  O_401
REMARK  135  A    between atoms: O_401  and  C_416
REMARK  136  A    between atoms: C_402  and  N_404
REMARK  137  A    between atoms: C_416  and  C_417
REMARK  138  A    between atoms: C_417  and  O_418
REMARK  139  A    between atoms: O_420  and  C_421
REMARK  140  A    between atoms: O_420  and  P_465
REMARK  141  A    between atoms: C_421  and  C_422
REMARK  142  A    between atoms: C_423  and  S_424
REMARK  143  A    between atoms: S_424  and  P_437
REMARK  144  A    between atoms: C_425  and  O_426
REMARK  145  A    between atoms: O_426  and  C_441
REMARK  146  A    between atoms: C_427  and  N_429
REMARK  147  A    between atoms: C_441  and  C_442
REMARK  148  A    between atoms: C_442  and  O_443
REMARK  149  A    between atoms: C_446  and  C_447
REMARK  150  A    between atoms: C_448  and  S_449
REMARK  151  A    between atoms: S_449  and  P_465
REMARK  152  A    between atoms: C_450  and  O_451
REMARK  153  A    between atoms: O_451  and  C_468
REMARK  154  A    between atoms: C_452  and  N_454
REMARK  155  A    between atoms: C_468  and  C_469
REMARK  156  A    between atoms: C_469  and  O_470
REMARK                            x       y       z     vdW  Elec       q    Type
REMARK                         _______ _______ _______ _____ _____    ______ ____
ROOT
ATOM      1 NA   UNL     1      28.094 -21.625   0.000  0.00  0.00    +0.000 Na
ENDROOT
TORSDOF 0
REMARK  Name = 
REMARK  156 active torsions:
REMARK  status: ('A' for Active; 'I' for Inactive)
REMARK    1  A    between atoms: O_15  and  C_16
REMARK    2  A    between atoms: O_15  and  P_54
REMARK    3  A    between atoms: C_16  and  C_17
REMARK    4  A    between atoms: C_20  and  O_21
REMARK    5  A    between atoms: O_21  and  C_33
REMARK    6  A    between atoms: C_22  and  N_24
REMARK    7  A    between atoms: C_33  and  C_34
REMARK    8  A    between atoms: C_34  and  O_35
REMARK    9  A    between atoms: O_37  and  C_38
REMARK   10  A    between atoms: O_37  and  P_81
REMARK   11  A    between atoms: C_38  and  C_39
REMARK   12  A    between atoms: C_40  and  S_41
REMARK   13  A    between atoms: S_41  and  P_54
REMARK   14  A    between atoms: C_42  and  O_43
REMARK   15  A    between atoms: O_43  and  C_58
REMARK   16  A    between atoms: C_44  and  N_46
REMARK   17  A    between atoms: C_58  and  C_59
REMARK   18  A    between atoms: C_59  and  O_60
REMARK   19  A    between atoms: O_62  and  C_63
REMARK   20  A    between atoms: O_62  and  P_105
REMARK   21  A    between atoms: C_63  and  C_64
REMARK   22  A    between atoms: C_65  and  S_66
REMARK   23  A    between atoms: S_66  and  P_81
REMARK   24  A    between atoms: C_67  and  O_68
REMARK   25  A    between atoms: O_68  and  C_84
REMARK   26  A    between atoms: C_69  and  N_71
REMARK   27  A    between atoms: C_84  and  C_85
REMARK   28  A    between atoms: C_85  and  O_86
REMARK   29  A    between atoms: O_88  and  C_89
REMARK   30  A    between atoms: O_88  and  P_133
REMARK   31  A    between atoms: C_89  and  C_90
REMARK   32  A    between atoms: C_91  and  S_92
REMARK   33  A    between atoms: S_92  and  P_105
REMARK   34  A    between atoms: C_93  and  O_94
REMARK   35  A    between atoms: O_94  and  C_109
REMARK   36  A    between atoms: C_95  and  N_97
REMARK   37  A    between atoms: C_109  and  C_110
REMARK   38  A    between atoms: C_110  and  O_111
REMARK   39  A    between atoms: O_113  and  C_114
REMARK   40  A    between atoms: O_113  and  P_156
REMARK   41  A    between atoms: C_114  and  C_115
REMARK   42  A    between atoms: C_116  and  S_117
REMARK   43  A    between atoms: S_117  and  P_133
REMARK   44  A    between atoms: C_118  and  O_119
REMARK   45  A    between atoms: O_119  and  C_136
REMARK   46  A    between atoms: C_120  and  N_122
REMARK   47  A    between atoms: C_136  and  C_137
REMARK   48  A    between atoms: C_137  and  O_138
REMARK   49  A    between atoms: O_140  and  C_141
REMARK   50  A    between atoms: O_140  and  P_177
REMARK   51  A    between atoms: C_141  and  C_142
REMARK   52  A    between atoms: C_143  and  S_144
REMARK   53  A    between atoms: S_144  and  P_156
REMARK   54  A    between atoms: C_146  and  N_148
REMARK   55  A    between atoms: O_160  and  C_161
REMARK   56  A    between atoms: O_160  and  P_197
REMARK   57  A    between atoms: C_161  and  C_162
REMARK   58  A    between atoms: C_163  and  S_164
REMARK   59  A    between atoms: S_164  and  P_177
REMARK   60  A    between atoms: C_166  and  N_168
REMARK   61  A    between atoms: O_180  and  C_181
REMARK   62  A    between atoms: O_180  and  P_216
REMARK   63  A    between atoms: C_181  and  C_182
REMARK   64  A    between atoms: C_183  and  S_184
REMARK   65  A    between atoms: S_184  and  P_197
REMARK   66  A    between atoms: C_186  and  N_188
REMARK   67  A    between atoms: O_200  and  C_201
REMARK   68  A    between atoms: O_200  and  P_239
REMARK   69  A    between atoms: C_201  and  C_202
REMARK   70  A    between atoms: C_203  and  S_204
REMARK   71  A    between atoms: S_204  and  P_216
REMARK   72  A    between atoms: C_206  and  N_208
REMARK   73  A    between atoms: O_220  and  C_221
REMARK   74  A    between atoms: O_220  and  P_259
REMARK   75  A    between atoms: C_221  and  C_222
REMARK   76  A    between atoms: C_223  and  S_224
REMARK   77  A    between atoms: S_224  and  P_239
REMARK   78  A    between atoms: C_226  and  N_228
REMARK   79  A    between atoms: O_242  and  C_243
REMARK   80  A    between atoms: O_242  and  P_278
REMARK   81  A    between atoms: C_243  and  C_244
REMARK   82  A    between atoms: C_245  and  S_246
REMARK   83  A    between atoms: S_246  and  P_259
REMARK   84  A    between atoms: C_248  and  N_250
REMARK   85  A    between atoms: O_262  and  C_263
REMARK   86  A    between atoms: O_262  and  P_299
REMARK   87  A    between atoms: C_263  and  C_264
REMARK   88  A    between atoms: C_265  and  S_266
REMARK   89  A    between atoms: S_266  and  P_278
REMARK   90  A    between atoms: C_268  and  N_270
REMARK   91  A    between atoms: O_282  and  C_283
REMARK   92  A    between atoms: O_282  and  P_321
REMARK   93  A    between atoms: C_283  and  C_284
REMARK   94  A    between atoms: C_285  and  S_286
REMARK   95  A    between atoms: S_286  and  P_299
REMARK   96  A    between atoms: C_288  and  N_290
REMARK   97  A    between atoms: O_302  and  C_303
REMARK   98  A    between atoms: O_302  and  P_342
REMARK   99  A    between atoms: C_303  and  C_304
REMARK  100  A    between atoms: C_305  and  S_306
REMARK  101  A    between atoms: S_306  and  P_321
REMARK  102  A    between atoms: C_308  and  N_310
REMARK  103  A    between atoms: O_324  and  C_325
REMARK  104  A    between atoms: O_324  and  P_362
REMARK  105  A    between atoms: C_325  and  C_326
REMARK  106  A    between atoms: C_327  and  S_328
REMARK  107  A    between atoms: S_328  and  P_342
REMARK  108  A    between atoms: C_330  and  N_332
REMARK  109  A    between atoms: O_345  and  C_346
REMARK  110  A    between atoms: O_345  and  P_387
REMARK  111  A    between atoms: C_346  and  C_347
REMARK  112  A    between atoms: C_348  and  S_349
REMARK  113  A    between atoms: S_349  and  P_362
REMARK  114  A    between atoms: C_350  and  O_351
REMARK  115  A    between atoms: O_351  and  C_366
REMARK  116  A    between atoms: C_352  and  N_354
REMARK  117  A    between atoms: C_366  and  C_367
REMARK  118  A    between atoms: C_367  and  O_368
REMARK  119  A    between atoms: O_370  and  C_371
REMARK  120  A    between atoms: O_370  and  P_412
REMARK  121  A    between atoms: C_371  and  C_372
REMARK  122  A    between atoms: C_373  and  S_374
REMARK  123  A    between atoms: S_374  and  P_387
REMARK  124  A    between atoms: C_375  and  O_376
REMARK  125  A    between atoms: O_376  and  C_391
REMARK  126  A    between atoms: C_377  and  N_379
REMARK  127  A    between atoms: C_391  and  C_392
REMARK  128  A    between atoms: C_392  and  O_393
REMARK  129  A    between atoms: O_395  and  C_396
REMARK  130  A    between atoms: O_395  and  P_437
REMARK  131  A    between atoms: C_396  and  C_397
REMARK  132  A    between atoms: C_398  and  S_399
REMARK  133  A    between atoms: S_399  and  P_412
REMARK  134  A    between atoms: C_400  and  O_401
REMARK  135  A    between atoms: O_401  and  C_416
REMARK  136  A    between atoms: C_402  and  N_404
REMARK  137  A    between atoms: C_416  and  C_417
REMARK  138  A    between atoms: C_417  and  O_418
REMARK  139  A    between atoms: O_420  and  C_421
REMARK  140  A    between atoms: O_420  and  P_465
REMARK  141  A    between atoms: C_421  and  C_422
REMARK  142  A    between atoms: C_423  and  S_424
REMARK  143  A    between atoms: S_424  and  P_437
REMARK  144  A    between atoms: C_425  and  O_426
REMARK  145  A    between atoms: O_426  and  C_441
REMARK  146  A    between atoms: C_427  and  N_429
REMARK  147  A    between atoms: C_441  and  C_442
REMARK  148  A    between atoms: C_442  and  O_443
REMARK  149  A    between atoms: C_446  and  C_447
REMARK  150  A    between atoms: C_448  and  S_449
REMARK  151  A    between atoms: S_449  and  P_465
REMARK  152  A    between atoms: C_450  and  O_451
REMARK  153  A    between atoms: O_451  and  C_468
REMARK  154  A    between atoms: C_452  and  N_454
REMARK  155  A    between atoms: C_468  and  C_469
REMARK  156  A    between atoms: C_469  and  O_470
REMARK                            x       y       z     vdW  Elec       q    Type
REMARK                         _______ _______ _______ _____ _____    ______ ____
ROOT
ATOM      1 NA   UNL     1       0.188 -18.656   0.000  0.00  0.00    +0.000 Na
ENDROOT
TORSDOF 0
