REMARK  Name = 
REMARK  9 active torsions:
REMARK  status: ('A' for Active; 'I' for Inactive)
REMARK    1  A    between atoms: N_1  and  C_9
REMARK    2  A    between atoms: C_3  and  O_11
REMARK    3  A    between atoms: C_4  and  O_12
REMARK    4  A    between atoms: C_9  and  C_10
REMARK    5  A    between atoms: C_10  and  C_17
REMARK    6  A    between atoms: O_11  and  C_17
REMARK    7  A    between atoms: O_12  and  C_18
REMARK    8  A    between atoms: C_18  and  C_19
REMARK    9  A    between atoms: C_19  and  C_20
REMARK                            x       y       z     vdW  Elec       q    Type
REMARK                         _______ _______ _______ _____ _____    ______ ____
ROOT
ATOM      1  C   UNL     1       4.604  -7.029   0.000  0.00  0.00    +0.000 A 
ATOM      2  C   UNL     1       3.379  -6.312   0.000  0.00  0.00    +0.000 A 
ATOM      3  C   UNL     1       3.367  -7.029   0.000  0.00  0.00    +0.000 A 
ATOM      4  C   UNL     1       3.992  -5.954   0.000  0.00  0.00    +0.000 A 
ATOM      5  C   UNL     1       3.987  -7.379   0.000  0.00  0.00    +0.000 A 
ATOM      6  C   UNL     1       4.604  -6.317   0.000  0.00  0.00    +0.000 A 
ENDROOT
BRANCH   1   7
ATOM      7  O   UNL     1       5.213  -7.379   0.000  0.00  0.00    +0.000 OA
BRANCH   7   8
ATOM      8  C   UNL     1       5.829  -7.025   0.000  0.00  0.00    +0.000 C 
BRANCH   8   9
ATOM      9  C   UNL     1       6.442  -7.379   0.000  0.00  0.00    +0.000 C 
BRANCH   9  10
ATOM     10  C   UNL     1       7.054  -7.042   0.000  0.00  0.00    +0.000 C 
BRANCH  10  11
ATOM     11  N   UNL     1       7.667  -7.392   0.000  0.00  0.00    +0.000 NA
ATOM     12  O   UNL     1       8.904  -8.100   0.000  0.00  0.00    +0.000 OA
ATOM     13  C   UNL     1       8.279  -7.042   0.000  0.00  0.00    +0.000 C 
ATOM     14  C   UNL     1       7.675  -8.092   0.000  0.00  0.00    +0.000 C 
ATOM     15  C   UNL     1       8.900  -7.400   0.000  0.00  0.00    +0.000 C 
ATOM     16  C   UNL     1       8.292  -8.454   0.000  0.00  0.00    +0.000 C 
ENDBRANCH  10  11
ENDBRANCH   9  10
ENDBRANCH   8   9
ENDBRANCH   7   8
ENDBRANCH   1   7
BRANCH   2  17
ATOM     17  O   UNL     1       2.754  -5.954   0.000  0.00  0.00    +0.000 OA
BRANCH  17  18
ATOM     18  C   UNL     1       2.154  -6.317   0.000  0.00  0.00    +0.000 C 
BRANCH  18  19
ATOM     19  C   UNL     1       1.529  -5.963   0.000  0.00  0.00    +0.000 C 
BRANCH  19  20
ATOM     20  C   UNL     1       0.917  -6.312   0.000  0.00  0.00    +0.000 C 
ATOM     21  C   UNL     1       0.300  -5.954   0.000  0.00  0.00    +0.000 C 
ENDBRANCH  19  20
ENDBRANCH  18  19
ENDBRANCH  17  18
ENDBRANCH   2  17
TORSDOF 9
