REMARK  Name = 
REMARK  10 active torsions:
REMARK  status: ('A' for Active; 'I' for Inactive)
REMARK    1  A    between atoms: C_1  and  C_7
REMARK    2  A    between atoms: C_2  and  C_8
REMARK    3  A    between atoms: C_3  and  C_9
REMARK    4  A    between atoms: C_4  and  C_13
REMARK    5  A    between atoms: C_7  and  O_14
REMARK    6  A    between atoms: C_8  and  O_15
REMARK    7  A    between atoms: C_13  and  O_20
REMARK    8  A    between atoms: O_15  and  C_23
REMARK    9  A    between atoms: O_20  and  C_24
REMARK   10  A    between atoms: C_22  and  C_24
REMARK                            x       y       z     vdW  Elec       q    Type
REMARK                         _______ _______ _______ _____ _____    ______ ____
ROOT
ATOM      1  C   UNL     1       2.996  -7.092   0.000  0.00  0.00    +0.000 C 
ATOM      2  C   UNL     1       1.775  -7.092   0.000  0.00  0.00    +0.000 C 
ATOM      3  C   UNL     1       2.383  -6.737   0.000  0.00  0.00    +0.000 C 
ATOM      4  C   UNL     1       1.775  -7.800   0.000  0.00  0.00    +0.000 C 
ATOM      5  C   UNL     1       2.996  -7.800   0.000  0.00  0.00    +0.000 C 
ATOM      6  N   UNL     1       2.383  -8.154   0.000  0.00  0.00    +0.000 NA
ATOM      7  C   UNL     1       3.612  -8.150   0.000  0.00  0.00    +0.000 C 
ENDROOT
BRANCH   3   8
ATOM      8  C   UNL     1       2.383  -5.321   0.000  0.00  0.00    +0.000 A 
ATOM      9  C   UNL     1       3.000  -4.967   0.000  0.00  0.00    +0.000 A 
ATOM     10 CL   UNL     1       3.612  -5.321   0.000  0.00  0.00    +0.000 Cl
ATOM     11  C   UNL     1       1.775  -4.967   0.000  0.00  0.00    +0.000 A 
ATOM     12  C   UNL     1       3.000  -4.258   0.000  0.00  0.00    +0.000 A 
ATOM     13  C   UNL     1       1.771  -4.263   0.000  0.00  0.00    +0.000 A 
ATOM     14  C   UNL     1       2.388  -3.904   0.000  0.00  0.00    +0.000 A 
ENDBRANCH   3   8
BRANCH   1  15
ATOM     15  C   UNL     1       3.612  -6.737   0.000  0.00  0.00    +0.000 C 
ATOM     16  O   UNL     1       3.612  -6.029   0.000  0.00  0.00    +0.000 OA
BRANCH  15  17
ATOM     17  O   UNL     1       4.225  -7.092   0.000  0.00  0.00    +0.000 OA
ATOM     18  C   UNL     1       4.838  -6.737   0.000  0.00  0.00    +0.000 C 
ENDBRANCH  15  17
ENDBRANCH   1  15
BRANCH   2  19
ATOM     19  C   UNL     1       1.158  -6.737   0.000  0.00  0.00    +0.000 C 
ATOM     20  O   UNL     1       1.158  -6.029   0.000  0.00  0.00    +0.000 OA
BRANCH  19  21
ATOM     21  O   UNL     1       0.546  -7.092   0.000  0.00  0.00    +0.000 OA
BRANCH  21  22
ATOM     22  C   UNL     1      -0.067  -6.737   0.000  0.00  0.00    +0.000 C 
ATOM     23  C   UNL     1      -0.679  -7.092   0.000  0.00  0.00    +0.000 C 
ENDBRANCH  21  22
ENDBRANCH  19  21
ENDBRANCH   2  19
BRANCH   4  24
ATOM     24  C   UNL     1       1.158  -8.150   0.000  0.00  0.00    +0.000 C 
BRANCH  24  25
ATOM     25  O   UNL     1       0.546  -7.796   0.000  0.00  0.00    +0.000 OA
BRANCH  25  26
ATOM     26  C   UNL     1      -0.067  -8.150   0.000  0.00  0.00    +0.000 C 
BRANCH  26  28
ATOM     27  N   UNL     1      -1.296  -8.150   0.000  0.00  0.00    +0.000 NA
ATOM     28  C   UNL     1      -0.679  -7.796   0.000  0.00  0.00    +0.000 C 
ENDBRANCH  26  28
ENDBRANCH  25  26
ENDBRANCH  24  25
ENDBRANCH   4  24
TORSDOF 10
