REMARK  Name = 
REMARK  4 active torsions:
REMARK  status: ('A' for Active; 'I' for Inactive)
REMARK    1  A    between atoms: C_1  and  C_3
REMARK    2  A    between atoms: N_2  and  N_6
REMARK    3  A    between atoms: C_3  and  C_7
REMARK    4  A    between atoms: N_6  and  C_7
REMARK                            x       y       z     vdW  Elec       q    Type
REMARK                         _______ _______ _______ _____ _____    ______ ____
ROOT
ATOM      1  N   UNL     1      -0.896  -0.804   0.000  0.00  0.00    +0.000 NA
ENDROOT
BRANCH   1   2
ATOM      2  N   UNL     1      -2.163  -0.104   0.000  0.00  0.00    +0.000 N 
ATOM      3  C   UNL     1      -3.321   0.583   0.000  0.00  0.00    +0.000 C 
ATOM      4  C   UNL     1      -3.383  -0.804   0.000  0.00  0.00    +0.000 C 
ATOM      5  C   UNL     1      -2.150   1.383   0.000  0.00  0.00    +0.000 C 
ENDBRANCH   1   2
BRANCH   1   6
ATOM      6  C   UNL     1       0.362  -0.075   0.000  0.00  0.00    +0.000 C 
BRANCH   6   7
ATOM      7  C   UNL     1       1.617  -0.767   0.000  0.00  0.00    +0.000 C 
BRANCH   7   8
ATOM      8  C   UNL     1       2.900  -0.013   0.000  0.00  0.00    +0.000 C 
ATOM      9  O   UNL     1       4.117  -0.742   0.000  0.00  0.00    +0.000 OA
ATOM     10  O   UNL     1       2.888   1.383   0.000  0.00  0.00    +0.000 OA
ENDBRANCH   7   8
ENDBRANCH   6   7
ENDBRANCH   1   6
TORSDOF 4
