REMARK  Name = 
REMARK  0 active torsions:
REMARK  status: ('A' for Active; 'I' for Inactive)
REMARK                            x       y       z     vdW  Elec       q    Type
REMARK                         _______ _______ _______ _____ _____    ______ ____
ROOT
ATOM      1  C   UNL     1      -2.874  -4.580   0.000  0.00  0.00    +0.000 C 
ATOM      2  C   UNL     1      -3.592  -4.173   0.000  0.00  0.00    +0.000 C 
ATOM      3  C   UNL     1      -4.303  -4.592   0.000  0.00  0.00    +0.000 C 
ATOM      4  C   UNL     1      -4.296  -5.417   0.000  0.00  0.00    +0.000 C 
ATOM      5  C   UNL     1      -3.578  -5.823   0.000  0.00  0.00    +0.000 C 
ATOM      6  C   UNL     1      -2.867  -5.405   0.000  0.00  0.00    +0.000 C 
ATOM      7  C   UNL     1      -4.005  -4.888   0.000  0.00  0.00    +0.000 C 
ATOM      8  C   UNL     1      -3.571  -6.648   0.000  0.00  0.00    +0.000 C 
ATOM      9  C   UNL     1      -4.802  -4.674   0.000  0.00  0.00    +0.000 C 
ATOM     10  C   UNL     1      -4.802  -5.101   0.000  0.00  0.00    +0.000 C 
ATOM     11  O   UNL     1      -2.149  -5.811   0.000  0.00  0.00    +0.000 OA
ENDROOT
TORSDOF 0
