
     RDKit          2D

 28 29  0  0  0  0  0  0  0  0999 V2000
   -0.3625    0.8000    0.0000 C   0  0  0  0  0  0  0  0  0  0  0  0
    0.4542   -0.5875    0.0000 C   0  0  0  0  0  0  0  0  0  0  0  0
   -0.3625   -0.1292    0.0000 C   0  0  0  0  0  0  0  0  0  0  0  0
    1.2792   -0.1292    0.0000 C   0  0  0  0  0  0  0  0  0  0  0  0
    0.4542    1.2458    0.0000 C   0  0  0  0  0  0  0  0  0  0  0  0
   -1.1625    1.2625    0.0000 C   0  0  0  0  0  0  0  0  0  0  0  0
    1.2667    0.8000    0.0000 N   0  0  0  0  0  0  0  0  0  0  0  0
   -2.0083   -2.9167    0.0000 N   0  0  0  0  0  0  0  0  0  0  0  0
   -1.1833   -0.5625    0.0000 C   0  0  0  0  0  0  0  0  0  0  0  0
    0.4417   -1.5250    0.0000 C   0  0  0  0  0  0  0  0  0  0  0  0
    2.0792   -0.5542    0.0000 C   0  0  0  0  0  0  0  0  0  0  0  0
   -2.0000   -1.9375    0.0000 C   0  0  0  0  0  0  0  0  0  0  0  0
    2.9000   -0.9917    0.0000 N   0  0  0  0  0  0  0  0  0  0  0  0
   -1.1833   -1.4792    0.0000 C   0  0  0  0  0  0  0  0  0  0  0  0
   -1.1875    2.2083    0.0000 O   0  0  0  0  0  0  0  0  0  0  0  0
   -1.1958   -3.3542    0.0000 O   0  0  0  0  0  0  0  0  0  0  0  0
   -2.8250   -3.3542    0.0000 O   0  0  0  0  0  0  0  0  0  0  0  0
   -1.9708    0.7958    0.0000 O   0  0  0  0  0  0  0  0  0  0  0  0
    1.2542   -1.9667    0.0000 O   0  0  0  0  0  0  0  0  0  0  0  0
   -0.3375   -1.9917    0.0000 O   0  0  0  0  0  0  0  0  0  0  0  0
    0.4417    2.2208    0.0000 C   0  0  0  0  0  0  0  0  0  0  0  0
   -1.9958   -0.0917    0.0000 C   0  0  0  0  0  0  0  0  0  0  0  0
   -2.0083    2.6583    0.0000 C   0  0  0  0  0  0  0  0  0  0  0  0
   -2.8250   -1.5167    0.0000 C   0  0  0  0  0  0  0  0  0  0  0  0
   -2.8208   -0.5417    0.0000 C   0  0  0  0  0  0  0  0  0  0  0  0
   -0.3333   -2.9375    0.0000 C   0  0  0  0  0  0  0  0  0  0  0  0
   -2.8083    2.1833    0.0000 C   0  0  0  0  0  0  0  0  0  0  0  0
   -2.0625    3.5958    0.0000 C   0  0  0  0  0  0  0  0  0  0  0  0
  2  3  1  0
  3  1  1  0
  4  7  1  0
  5  1  2  0
  6  1  1  0
  7  5  1  0
  8 12  1  0
  9  3  1  0
 10  2  1  0
 11  4  1  0
 12 14  2  0
 13 11  3  0
 14  9  1  0
 15  6  1  0
 16  8  1  0
 17  8  2  0
 18  6  2  0
 19 10  2  0
 20 10  1  0
 21  5  1  0
 22  9  2  0
 23 15  1  0
 24 25  2  0
 25 22  1  0
 26 20  1  0
 27 23  1  0
 28 23  1  0
  2  4  2  0
 12 24  1  0
M  CHG  2   8   1  16  -1
M  END


> <chembl_id>
CHEMBL517427

> <chembl_pref_name>
NILVADIPINE
