
     RDKit          2D

 18 17  0  0  0  0  0  0  0  0999 V2000
    3.3375    0.0250    0.0000 N   0  0  0  0  0  0  0  0  0  0  0  0
    2.9375    0.7083    0.0000 O   0  0  0  0  0  0  0  0  0  0  0  0
    4.1292    0.0250    0.0000 O   0  0  0  0  0  0  0  0  0  0  0  0
    2.9542   -0.6417    0.0000 O   0  0  0  0  0  0  0  0  0  0  0  0
    2.1792   -0.6417    0.0000 C   0  0  0  0  0  0  0  0  0  0  0  0
    1.0042    0.0375    0.0000 N   0  0  0  0  0  0  0  0  0  0  0  0
    1.7792    0.0375    0.0000 C   0  0  0  0  0  0  0  0  0  0  0  0
   -1.2833    0.0250    0.0000 S   0  0  0  0  0  0  0  0  0  0  0  0
   -2.0583    0.0375    0.0000 C   0  0  0  0  0  0  0  0  0  0  0  0
   -1.2833    0.8083    0.0000 O   0  0  0  0  0  0  0  0  0  0  0  0
   -0.5083    0.0250    0.0000 O   0  0  0  0  0  0  0  0  0  0  0  0
   -1.2833   -0.7542    0.0000 O   0  0  0  0  0  0  0  0  0  0  0  0
   -2.4458    0.6958    0.0000 C   0  0  0  0  0  0  0  0  0  0  0  0
   -2.4458   -0.6375    0.0000 C   0  0  0  0  0  0  0  0  0  0  0  0
   -3.1958   -0.6375    0.0000 C   0  0  0  0  0  0  0  0  0  0  0  0
   -3.1958    0.6958    0.0000 C   0  0  0  0  0  0  0  0  0  0  0  0
   -3.5833    0.0375    0.0000 C   0  0  0  0  0  0  0  0  0  0  0  0
   -4.3458    0.0375    0.0000 C   0  0  0  0  0  0  0  0  0  0  0  0
  2  1  1  0
  3  1  2  0
  4  1  1  0
  5  4  1  0
  6  7  1  0
  7  5  1  0
  9  8  1  0
 10  8  2  0
 11  8  2  0
 12  8  1  0
 13  9  2  0
 14  9  1  0
 15 14  2  0
 16 13  1  0
 17 16  2  0
 18 17  1  0
 15 17  1  0
M  CHG  2   1   1   2  -1
M  END


> <chembl_id>
CHEMBL2106780

> <chembl_pref_name>
ITRAMIN TOSYLATE
