
     RDKit          2D

 19 18  0  0  0  0  0  0  0  0999 V2000
    4.9667   -6.7417    0.0000 N   0  0  0  0  0  0  0  0  0  0  0  0
    3.2125   -3.5250    0.0000 N   0  0  0  0  0  0  0  0  0  0  0  0
    6.9542   -3.7000    0.0000 N   0  0  0  0  0  0  0  0  0  0  0  0
    5.6250   -6.4875    0.0000 O   0  0  0  0  0  0  0  0  0  0  0  0
    3.1292   -4.2292    0.0000 O   0  0  0  0  0  0  0  0  0  0  0  0
    6.3917   -3.2667    0.0000 O   0  0  0  0  0  0  0  0  0  0  0  0
    5.0167   -7.4750    0.0000 O   0  0  0  0  0  0  0  0  0  0  0  0
    7.5667   -3.3250    0.0000 O   0  0  0  0  0  0  0  0  0  0  0  0
    2.5792   -3.1667    0.0000 O   0  0  0  0  0  0  0  0  0  0  0  0
    4.3750   -6.3667    0.0000 O   0  0  0  0  0  0  0  0  0  0  0  0
    3.8417   -3.2042    0.0000 O   0  0  0  0  0  0  0  0  0  0  0  0
    6.9167   -4.4042    0.0000 O   0  0  0  0  0  0  0  0  0  0  0  0
    4.4167   -5.6542    0.0000 C   0  0  0  0  0  0  0  0  0  0  0  0
    4.4375   -3.6000    0.0000 C   0  0  0  0  0  0  0  0  0  0  0  0
    6.2667   -4.7250    0.0000 C   0  0  0  0  0  0  0  0  0  0  0  0
    5.0542   -4.6292    0.0000 N   0  0  0  0  0  0  0  0  0  0  0  0
    5.0542   -5.3375    0.0000 C   0  0  0  0  0  0  0  0  0  0  0  0
    4.4167   -4.3125    0.0000 C   0  0  0  0  0  0  0  0  0  0  0  0
    5.6792   -4.3292    0.0000 C   0  0  0  0  0  0  0  0  0  0  0  0
  2 11  1  0
  3 12  1  0
  4  1  1  0
  5  2  1  0
  6  3  1  0
  7  1  2  0
  8  3  2  0
  9  2  2  0
 10  1  1  0
 11 14  1  0
 12 15  1  0
 13 10  1  0
 14 18  1  0
 15 19  1  0
 16 17  1  0
 17 13  1  0
 18 16  1  0
 19 16  1  0
M  CHG  6   1   1   2   1   3   1   4  -1   5  -1   6  -1
M  END


> <chembl_id>
CHEMBL2111164

> <chembl_pref_name>
TROLNITRATE
