REMARK  Name = 
REMARK  10 active torsions:
REMARK  status: ('A' for Active; 'I' for Inactive)
REMARK    1  A    between atoms: N_1  and  C_12
REMARK    2  A    between atoms: C_2  and  C_5
REMARK    3  A    between atoms: C_4  and  C_8
REMARK    4  A    between atoms: C_4  and  C_13
REMARK    5  A    between atoms: C_6  and  C_27
REMARK    6  A    between atoms: C_9  and  C_14
REMARK    7  A    between atoms: C_10  and  C_13
REMARK    8  A    between atoms: C_12  and  C_22
REMARK    9  A    between atoms: C_27  and  C_28
REMARK   10  A    between atoms: C_28  and  C_29
REMARK                            x       y       z     vdW  Elec       q    Type
REMARK                         _______ _______ _______ _____ _____    ______ ____
ROOT
ATOM      1  N   UNL     1      -0.083   0.333   0.000  0.00  0.00    +0.000 N 
ATOM      2  C   UNL     1       0.713   0.346   0.000  0.00  0.00    +0.000 A 
ATOM      3  N   UNL     1       0.338  -0.867   0.000  0.00  0.00    +0.000 NA
ATOM      4  C   UNL     1      -0.308  -0.417   0.000  0.00  0.00    +0.000 A 
ATOM      5  C   UNL     1       0.963  -0.388   0.000  0.00  0.00    +0.000 A 
ENDROOT
BRANCH   2   7
ATOM      6  C   UNL     1       1.867   1.062   0.000  0.00  0.00    +0.000 C 
ATOM      7  C   UNL     1       1.092   1.046   0.000  0.00  0.00    +0.000 C 
BRANCH   6   8
ATOM      8  C   UNL     1       2.237   1.758   0.000  0.00  0.00    +0.000 C 
ATOM      9  O   UNL     1       3.029   1.775   0.000  0.00  0.00    +0.000 OA
ATOM     10  O   UNL     1       1.829   2.421   0.000  0.00  0.00    +0.000 OA
ENDBRANCH   6   8
BRANCH   6  11
ATOM     11  C   UNL     1       2.279   0.396   0.000  0.00  0.00    +0.000 C 
BRANCH  11  12
ATOM     12  C   UNL     1       3.062   0.421   0.000  0.00  0.00    +0.000 A 
ATOM     13  S   UNL     1       3.704  -0.029   0.000  0.00  0.00    +0.000 S 
ATOM     14  C   UNL     1       4.342   0.458   0.000  0.00  0.00    +0.000 A 
ATOM     15  C   UNL     1       3.279   1.171   0.000  0.00  0.00    +0.000 A 
ATOM     16  C   UNL     1       4.067   1.188   0.000  0.00  0.00    +0.000 A 
ENDBRANCH  11  12
ENDBRANCH   6  11
ENDBRANCH   2   7
BRANCH   1  17
ATOM     17  C   UNL     1      -0.621   0.908   0.000  0.00  0.00    +0.000 C 
BRANCH  17  21
ATOM     18  C   UNL     1      -2.933   0.371   0.000  0.00  0.00    +0.000 A 
ATOM     19  C   UNL     1      -2.708   1.121   0.000  0.00  0.00    +0.000 A 
ATOM     20  C   UNL     1      -2.396  -0.200   0.000  0.00  0.00    +0.000 A 
ATOM     21  C   UNL     1      -1.400   0.733   0.000  0.00  0.00    +0.000 A 
ATOM     22  C   UNL     1      -1.938   1.308   0.000  0.00  0.00    +0.000 A 
ATOM     23  C   UNL     1      -1.625  -0.017   0.000  0.00  0.00    +0.000 A 
BRANCH  18  24
ATOM     24  C   UNL     1      -3.708   0.196   0.000  0.00  0.00    +0.000 C 
ATOM     25  O   UNL     1      -3.933  -0.562   0.000  0.00  0.00    +0.000 OA
ATOM     26  O   UNL     1      -4.246   0.771   0.000  0.00  0.00    +0.000 OA
ENDBRANCH  18  24
ENDBRANCH  17  21
ENDBRANCH   1  17
BRANCH   4  27
ATOM     27  C   UNL     1      -1.062  -0.688   0.000  0.00  0.00    +0.000 C 
BRANCH  27  28
ATOM     28  C   UNL     1      -1.208  -1.462   0.000  0.00  0.00    +0.000 C 
BRANCH  28  29
ATOM     29  C   UNL     1      -1.946  -1.729   0.000  0.00  0.00    +0.000 C 
ATOM     30  C   UNL     1      -2.083  -2.504   0.000  0.00  0.00    +0.000 C 
ENDBRANCH  28  29
ENDBRANCH  27  28
ENDBRANCH   4  27
TORSDOF 10
