REMARK  Name = 
REMARK  4 active torsions:
REMARK  status: ('A' for Active; 'I' for Inactive)
REMARK    1  A    between atoms: N_1  and  C_3
REMARK    2  A    between atoms: N_1  and  C_6
REMARK    3  A    between atoms: N_1  and  C_8
REMARK    4  A    between atoms: C_2  and  C_6
REMARK                            x       y       z     vdW  Elec       q    Type
REMARK                         _______ _______ _______ _____ _____    ______ ____
ROOT
ATOM      1  N   UNL     1      -1.196  -6.904   0.000  0.00  0.00    +0.000 N 
ENDROOT
BRANCH   1   2
ATOM      2  C   UNL     1      -1.821  -7.250   0.000  0.00  0.00    +0.000 A 
ATOM      3  C   UNL     1      -2.446  -6.900   0.000  0.00  0.00    +0.000 A 
ATOM      4  C   UNL     1      -3.058  -7.250   0.000  0.00  0.00    +0.000 A 
ATOM      5  O   UNL     1      -3.671  -6.912   0.000  0.00  0.00    +0.000 OA
ATOM      6  C   UNL     1      -1.808  -7.954   0.000  0.00  0.00    +0.000 A 
ATOM      7  C   UNL     1      -2.400  -8.325   0.000  0.00  0.00    +0.000 A 
ATOM      8  C   UNL     1      -3.038  -7.967   0.000  0.00  0.00    +0.000 A 
ENDBRANCH   1   2
BRANCH   1   9
ATOM      9  C   UNL     1      -0.596  -7.267   0.000  0.00  0.00    +0.000 A 
ATOM     10  C   UNL     1       0.025  -6.942   0.000  0.00  0.00    +0.000 A 
ATOM     11  C   UNL     1      -0.600  -7.992   0.000  0.00  0.00    +0.000 A 
ATOM     12  C   UNL     1       0.004  -8.354   0.000  0.00  0.00    +0.000 A 
ATOM     13  C   UNL     1       0.629  -7.292   0.000  0.00  0.00    +0.000 A 
ATOM     14  C   UNL     1       0.637  -7.992   0.000  0.00  0.00    +0.000 A 
ATOM     15  C   UNL     1       1.267  -8.354   0.000  0.00  0.00    +0.000 C 
ENDBRANCH   1   9
BRANCH   1  16
ATOM     16  C   UNL     1      -1.158  -6.179   0.000  0.00  0.00    +0.000 C 
BRANCH  16  17
ATOM     17  C   UNL     1      -1.788  -5.817   0.000  0.00  0.00    +0.000 C 
ATOM     18  N   UNL     1      -2.362  -6.237   0.000  0.00  0.00    +0.000 NA
ATOM     19  N   UNL     1      -1.996  -5.142   0.000  0.00  0.00    +0.000 NA
ATOM     20  C   UNL     1      -2.921  -5.804   0.000  0.00  0.00    +0.000 C 
ATOM     21  C   UNL     1      -2.696  -5.138   0.000  0.00  0.00    +0.000 C 
ENDBRANCH  16  17
ENDBRANCH   1  16
TORSDOF 4
REMARK  Name = 
REMARK  4 active torsions:
REMARK  status: ('A' for Active; 'I' for Inactive)
REMARK    1  A    between atoms: N_1  and  C_3
REMARK    2  A    between atoms: N_1  and  C_6
REMARK    3  A    between atoms: N_1  and  C_8
REMARK    4  A    between atoms: C_2  and  C_6
REMARK                            x       y       z     vdW  Elec       q    Type
REMARK                         _______ _______ _______ _____ _____    ______ ____
ROOT
ATOM      1  S   UNL     1       0.204  -5.737   0.000  0.00  0.00    +0.000 S 
ATOM      2  O   UNL     1       0.554  -5.117   0.000  0.00  0.00    +0.000 OA
ATOM      3  O   UNL     1      -0.158  -5.117   0.000  0.00  0.00    +0.000 OA
ATOM      4  O   UNL     1       0.817  -6.092   0.000  0.00  0.00    +0.000 OA
ATOM      5  C   UNL     1      -0.408  -6.092   0.000  0.00  0.00    +0.000 C 
ENDROOT
TORSDOF 0
