MODEL 1
REMARK VINA RESULT:      -9.9      0.000      0.000
REMARK  Name = 
REMARK  4 active torsions:
REMARK  status: ('A' for Active; 'I' for Inactive)
REMARK    1  A    between atoms: N_1  and  C_9
REMARK    2  A    between atoms: N_2  and  C_10
REMARK    3  A    between atoms: C_9  and  C_14
REMARK    4  A    between atoms: C_10  and  C_13
REMARK                            x       y       z     vdW  Elec       q    Type
REMARK                         _______ _______ _______ _____ _____    ______ ____
ROOT
ATOM      1  N   UNL     1     147.444 106.437 193.556  0.00  0.00    +0.000 N 
ATOM      2  N   UNL     1     147.314 105.418 192.968  0.00  0.00    +0.000 N 
ATOM      3  C   UNL     1     147.245 105.743 193.623  0.00  0.00    +0.000 C 
ATOM      4  C   UNL     1     147.631 106.540 192.880  0.00  0.00    +0.000 C 
ATOM      5  C   UNL     1     147.552 105.916 192.517  0.00  0.00    +0.000 C 
ATOM      6  S   UNL     1     147.941 106.728 191.778  0.00  0.00    +0.000 S 
ATOM      7  C   UNL     1     147.867 107.015 192.411  0.00  0.00    +0.000 C 
ATOM      8  C   UNL     1     147.744 106.036 191.837  0.00  0.00    +0.000 C 
ATOM      9  O   UNL     1     147.025 105.448 194.228  0.00  0.00    +0.000 OA
ATOM     10  C   UNL     1     148.129 106.842 191.108  0.00  0.00    +0.000 C 
ATOM     11  C   UNL     1     147.817 105.745 191.202  0.00  0.00    +0.000 C 
ATOM     12  C   UNL     1     148.050 106.219 190.746  0.00  0.00    +0.000 C 
ENDROOT
BRANCH   1  13
ATOM     13  C   UNL     1     147.523 107.047 193.906  0.00  0.00    +0.000 C 
BRANCH  13  14
ATOM     14  C   UNL     1     147.359 107.090 194.593  0.00  0.00    +0.000 A 
ATOM     15  C   UNL     1     146.735 107.355 194.786  0.00  0.00    +0.000 A 
ATOM     16  C   UNL     1     147.820 106.867 195.077  0.00  0.00    +0.000 A 
ATOM     17  C   UNL     1     146.565 107.400 195.473  0.00  0.00    +0.000 A 
ATOM     18  C   UNL     1     147.656 106.910 195.765  0.00  0.00    +0.000 A 
ATOM     19  C   UNL     1     147.028 107.176 195.966  0.00  0.00    +0.000 A 
ENDBRANCH  13  14
ENDBRANCH   1  13
BRANCH   2  20
ATOM     20  C   UNL     1     147.239 104.813 192.607  0.00  0.00    +0.000 C 
BRANCH  20  21
ATOM     21  C   UNL     1     147.029 104.226 192.945  0.00  0.00    +0.000 A 
ATOM     22  C   UNL     1     146.345 104.054 192.960  0.00  0.00    +0.000 A 
ATOM     23  C   UNL     1     147.512 103.818 193.267  0.00  0.00    +0.000 A 
ATOM     24  C   UNL     1     147.302 103.232 193.605  0.00  0.00    +0.000 A 
ATOM     25  C   UNL     1     146.138 103.469 193.297  0.00  0.00    +0.000 A 
ATOM     26  C   UNL     1     146.614 103.057 193.620  0.00  0.00    +0.000 A 
ENDBRANCH  20  21
ENDBRANCH   2  20
TORSDOF 4
ENDMDL
MODEL 2
REMARK VINA RESULT:      -9.7     89.425     91.143
REMARK  Name = 
REMARK  4 active torsions:
REMARK  status: ('A' for Active; 'I' for Inactive)
REMARK    1  A    between atoms: N_1  and  C_9
REMARK    2  A    between atoms: N_2  and  C_10
REMARK    3  A    between atoms: C_9  and  C_14
REMARK    4  A    between atoms: C_10  and  C_13
REMARK                            x       y       z     vdW  Elec       q    Type
REMARK                         _______ _______ _______ _____ _____    ______ ____
ROOT
ATOM      1  N   UNL     1     103.963 119.424 114.045  0.00  0.00    +0.000 N 
ATOM      2  N   UNL     1     104.221 120.386 114.685  0.00  0.00    +0.000 N 
ATOM      3  C   UNL     1     104.508 119.827 114.302  0.00  0.00    +0.000 C 
ATOM      4  C   UNL     1     103.357 119.722 114.260  0.00  0.00    +0.000 C 
ATOM      5  C   UNL     1     103.513 120.312 114.653  0.00  0.00    +0.000 C 
ATOM      6  S   UNL     1     102.355 120.195 114.603  0.00  0.00    +0.000 S 
ATOM      7  C   UNL     1     102.651 119.672 114.245  0.00  0.00    +0.000 C 
ATOM      8  C   UNL     1     102.893 120.602 114.864  0.00  0.00    +0.000 C 
ATOM      9  O   UNL     1     105.193 119.688 114.192  0.00  0.00    +0.000 OA
ATOM     10  C   UNL     1     101.747 120.482 114.812  0.00  0.00    +0.000 C 
ATOM     11  C   UNL     1     102.598 121.127 115.224  0.00  0.00    +0.000 C 
ATOM     12  C   UNL     1     101.902 121.072 115.204  0.00  0.00    +0.000 C 
ENDROOT
BRANCH   1  13
ATOM     13  C   UNL     1     103.807 118.849 113.662  0.00  0.00    +0.000 C 
BRANCH  13  14
ATOM     14  C   UNL     1     104.317 118.496 113.321  0.00  0.00    +0.000 A 
ATOM     15  C   UNL     1     104.482 118.677 112.660  0.00  0.00    +0.000 A 
ATOM     16  C   UNL     1     104.654 117.968 113.645  0.00  0.00    +0.000 A 
ATOM     17  C   UNL     1     104.992 118.326 112.313  0.00  0.00    +0.000 A 
ATOM     18  C   UNL     1     105.165 117.616 113.303  0.00  0.00    +0.000 A 
ATOM     19  C   UNL     1     105.336 117.793 112.636  0.00  0.00    +0.000 A 
ENDBRANCH  13  14
ENDBRANCH   1  13
BRANCH   2  20
ATOM     20  C   UNL     1     104.366 120.963 115.069  0.00  0.00    +0.000 C 
BRANCH  20  21
ATOM     21  C   UNL     1     105.040 121.143 115.191  0.00  0.00    +0.000 A 
ATOM     22  C   UNL     1     105.380 120.881 115.752  0.00  0.00    +0.000 A 
ATOM     23  C   UNL     1     105.367 121.588 114.746  0.00  0.00    +0.000 A 
ATOM     24  C   UNL     1     106.041 121.769 114.868  0.00  0.00    +0.000 A 
ATOM     25  C   UNL     1     106.051 121.063 115.871  0.00  0.00    +0.000 A 
ATOM     26  C   UNL     1     106.384 121.507 115.431  0.00  0.00    +0.000 A 
ENDBRANCH  20  21
ENDBRANCH   2  20
TORSDOF 4
ENDMDL
MODEL 3
REMARK VINA RESULT:      -9.6     96.174     97.835
REMARK  Name = 
REMARK  4 active torsions:
REMARK  status: ('A' for Active; 'I' for Inactive)
REMARK    1  A    between atoms: N_1  and  C_9
REMARK    2  A    between atoms: N_2  and  C_10
REMARK    3  A    between atoms: C_9  and  C_14
REMARK    4  A    between atoms: C_10  and  C_13
REMARK                            x       y       z     vdW  Elec       q    Type
REMARK                         _______ _______ _______ _____ _____    ______ ____
ROOT
ATOM      1  N   UNL     1     111.973 106.127 102.803  0.00  0.00    +0.000 N 
ATOM      2  N   UNL     1     111.879 106.749 101.800  0.00  0.00    +0.000 N 
ATOM      3  C   UNL     1     112.180 106.154 102.109  0.00  0.00    +0.000 C 
ATOM      4  C   UNL     1     111.556 106.688 102.923  0.00  0.00    +0.000 C 
ATOM      5  C   UNL     1     111.497 107.071 102.309  0.00  0.00    +0.000 C 
ATOM      6  S   UNL     1     110.872 107.599 103.138  0.00  0.00    +0.000 S 
ATOM      7  C   UNL     1     111.170 107.028 103.409  0.00  0.00    +0.000 C 
ATOM      8  C   UNL     1     111.074 107.633 102.445  0.00  0.00    +0.000 C 
ATOM      9  O   UNL     1     112.602 105.676 101.800  0.00  0.00    +0.000 OA
ATOM     10  C   UNL     1     110.456 108.153 103.268  0.00  0.00    +0.000 C 
ATOM     11  C   UNL     1     110.776 108.206 102.170  0.00  0.00    +0.000 C 
ATOM     12  C   UNL     1     110.397 108.536 102.655  0.00  0.00    +0.000 C 
ENDROOT
BRANCH   1  13
ATOM     13  C   UNL     1     112.029 105.756 103.404  0.00  0.00    +0.000 C 
BRANCH  13  14
ATOM     14  C   UNL     1     112.397 105.152 103.419  0.00  0.00    +0.000 A 
ATOM     15  C   UNL     1     113.083 105.167 103.581  0.00  0.00    +0.000 A 
ATOM     16  C   UNL     1     112.075 104.542 103.273  0.00  0.00    +0.000 A 
ATOM     17  C   UNL     1     113.457 104.564 103.599  0.00  0.00    +0.000 A 
ATOM     18  C   UNL     1     112.444 103.938 103.288  0.00  0.00    +0.000 A 
ATOM     19  C   UNL     1     113.136 103.946 103.451  0.00  0.00    +0.000 A 
ENDBRANCH  13  14
ENDBRANCH   1  13
BRANCH   2  20
ATOM     20  C   UNL     1     111.816 107.128 101.205  0.00  0.00    +0.000 C 
BRANCH  20  21
ATOM     21  C   UNL     1     112.137 106.907 100.613  0.00  0.00    +0.000 A 
ATOM     22  C   UNL     1     112.793 107.124 100.466  0.00  0.00    +0.000 A 
ATOM     23  C   UNL     1     111.794 106.469 100.174  0.00  0.00    +0.000 A 
ATOM     24  C   UNL     1     112.115 106.248  99.582  0.00  0.00    +0.000 A 
ATOM     25  C   UNL     1     113.110 106.902  99.875  0.00  0.00    +0.000 A 
ATOM     26  C   UNL     1     112.773 106.465  99.432  0.00  0.00    +0.000 A 
ENDBRANCH  20  21
ENDBRANCH   2  20
TORSDOF 4
ENDMDL
MODEL 4
REMARK VINA RESULT:      -9.5     42.918     43.888
REMARK  Name = 
REMARK  4 active torsions:
REMARK  status: ('A' for Active; 'I' for Inactive)
REMARK    1  A    between atoms: N_1  and  C_9
REMARK    2  A    between atoms: N_2  and  C_10
REMARK    3  A    between atoms: C_9  and  C_14
REMARK    4  A    between atoms: C_10  and  C_13
REMARK                            x       y       z     vdW  Elec       q    Type
REMARK                         _______ _______ _______ _____ _____    ______ ____
ROOT
ATOM      1  N   UNL     1     106.597 122.030 190.219  0.00  0.00    +0.000 N 
ATOM      2  N   UNL     1     106.566 121.290 191.143  0.00  0.00    +0.000 N 
ATOM      3  C   UNL     1     106.558 121.331 190.409  0.00  0.00    +0.000 C 
ATOM      4  C   UNL     1     106.627 122.411 190.816  0.00  0.00    +0.000 C 
ATOM      5  C   UNL     1     106.608 121.960 191.384  0.00  0.00    +0.000 C 
ATOM      6  S   UNL     1     106.678 123.052 191.781  0.00  0.00    +0.000 S 
ATOM      7  C   UNL     1     106.669 123.066 191.082  0.00  0.00    +0.000 C 
ATOM      8  C   UNL     1     106.639 122.359 191.978  0.00  0.00    +0.000 C 
ATOM      9  O   UNL     1     106.521 120.794 189.949  0.00  0.00    +0.000 OA
ATOM     10  C   UNL     1     106.708 123.442 192.368  0.00  0.00    +0.000 C 
ATOM     11  C   UNL     1     106.648 122.343 192.680  0.00  0.00    +0.000 C 
ATOM     12  C   UNL     1     106.689 122.991 192.935  0.00  0.00    +0.000 C 
ENDROOT
BRANCH   1  13
ATOM     13  C   UNL     1     106.616 122.473 189.668  0.00  0.00    +0.000 C 
BRANCH  13  14
ATOM     14  C   UNL     1     106.524 122.230 189.009  0.00  0.00    +0.000 A 
ATOM     15  C   UNL     1     107.081 122.001 188.643  0.00  0.00    +0.000 A 
ATOM     16  C   UNL     1     105.878 122.221 188.727  0.00  0.00    +0.000 A 
ATOM     17  C   UNL     1     106.995 121.756 187.982  0.00  0.00    +0.000 A 
ATOM     18  C   UNL     1     105.787 121.978 188.068  0.00  0.00    +0.000 A 
ATOM     19  C   UNL     1     106.344 121.745 187.693  0.00  0.00    +0.000 A 
ENDBRANCH  13  14
ENDBRANCH   1  13
BRANCH   2  20
ATOM     20  C   UNL     1     106.547 120.856 191.702  0.00  0.00    +0.000 C 
BRANCH  20  21
ATOM     21  C   UNL     1     106.510 120.155 191.602  0.00  0.00    +0.000 A 
ATOM     22  C   UNL     1     105.880 119.840 191.553  0.00  0.00    +0.000 A 
ATOM     23  C   UNL     1     107.108 119.779 191.551  0.00  0.00    +0.000 A 
ATOM     24  C   UNL     1     107.070 119.078 191.450  0.00  0.00    +0.000 A 
ATOM     25  C   UNL     1     105.845 119.142 191.453  0.00  0.00    +0.000 A 
ATOM     26  C   UNL     1     106.439 118.759 191.401  0.00  0.00    +0.000 A 
ENDBRANCH  20  21
ENDBRANCH   2  20
TORSDOF 4
ENDMDL
MODEL 5
REMARK VINA RESULT:      -9.4     89.433     91.128
REMARK  Name = 
REMARK  4 active torsions:
REMARK  status: ('A' for Active; 'I' for Inactive)
REMARK    1  A    between atoms: N_1  and  C_9
REMARK    2  A    between atoms: N_2  and  C_10
REMARK    3  A    between atoms: C_9  and  C_14
REMARK    4  A    between atoms: C_10  and  C_13
REMARK                            x       y       z     vdW  Elec       q    Type
REMARK                         _______ _______ _______ _____ _____    ______ ____
ROOT
ATOM      1  N   UNL     1     104.244 120.404 114.691  0.00  0.00    +0.000 N 
ATOM      2  N   UNL     1     103.989 119.444 114.047  0.00  0.00    +0.000 N 
ATOM      3  C   UNL     1     104.532 119.882 114.279  0.00  0.00    +0.000 C 
ATOM      4  C   UNL     1     103.544 120.295 114.715  0.00  0.00    +0.000 C 
ATOM      5  C   UNL     1     103.385 119.706 114.320  0.00  0.00    +0.000 C 
ATOM      6  S   UNL     1     102.397 120.132 114.766  0.00  0.00    +0.000 S 
ATOM      7  C   UNL     1     102.930 120.534 114.974  0.00  0.00    +0.000 C 
ATOM      8  C   UNL     1     102.676 119.609 114.354  0.00  0.00    +0.000 C 
ATOM      9  O   UNL     1     105.223 119.822 114.136  0.00  0.00    +0.000 OA
ATOM     10  C   UNL     1     101.700 120.033 114.797  0.00  0.00    +0.000 C 
ATOM     11  C   UNL     1     102.142 119.204 114.144  0.00  0.00    +0.000 C 
ATOM     12  C   UNL     1     101.541 119.446 114.403  0.00  0.00    +0.000 C 
ENDROOT
BRANCH   1  13
ATOM     13  C   UNL     1     104.396 120.978 115.077  0.00  0.00    +0.000 C 
BRANCH  13  14
ATOM     14  C   UNL     1     105.068 121.168 115.189  0.00  0.00    +0.000 A 
ATOM     15  C   UNL     1     105.413 120.909 115.746  0.00  0.00    +0.000 A 
ATOM     16  C   UNL     1     105.385 121.613 114.743  0.00  0.00    +0.000 A 
ATOM     17  C   UNL     1     106.088 121.096 115.863  0.00  0.00    +0.000 A 
ATOM     18  C   UNL     1     106.058 121.803 114.856  0.00  0.00    +0.000 A 
ATOM     19  C   UNL     1     106.412 121.545 115.416  0.00  0.00    +0.000 A 
ENDBRANCH  13  14
ENDBRANCH   1  13
BRANCH   2  20
ATOM     20  C   UNL     1     103.826 118.871 113.664  0.00  0.00    +0.000 C 
BRANCH  20  21
ATOM     21  C   UNL     1     104.339 118.519 113.323  0.00  0.00    +0.000 A 
ATOM     22  C   UNL     1     104.499 118.689 112.657  0.00  0.00    +0.000 A 
ATOM     23  C   UNL     1     104.685 117.999 113.658  0.00  0.00    +0.000 A 
ATOM     24  C   UNL     1     105.198 117.648 113.317  0.00  0.00    +0.000 A 
ATOM     25  C   UNL     1     105.010 118.337 112.320  0.00  0.00    +0.000 A 
ATOM     26  C   UNL     1     105.361 117.816 112.648  0.00  0.00    +0.000 A 
ENDBRANCH  20  21
ENDBRANCH   2  20
TORSDOF 4
ENDMDL
MODEL 6
REMARK VINA RESULT:      -9.4     95.978     97.524
REMARK  Name = 
REMARK  4 active torsions:
REMARK  status: ('A' for Active; 'I' for Inactive)
REMARK    1  A    between atoms: N_1  and  C_9
REMARK    2  A    between atoms: N_2  and  C_10
REMARK    3  A    between atoms: C_9  and  C_14
REMARK    4  A    between atoms: C_10  and  C_13
REMARK                            x       y       z     vdW  Elec       q    Type
REMARK                         _______ _______ _______ _____ _____    ______ ____
ROOT
ATOM      1  N   UNL     1     111.510 106.549 102.391  0.00  0.00    +0.000 N 
ATOM      2  N   UNL     1     112.376 105.744 102.323  0.00  0.00    +0.000 N 
ATOM      3  C   UNL     1     111.839 106.012 102.749  0.00  0.00    +0.000 C 
ATOM      4  C   UNL     1     111.830 106.613 101.762  0.00  0.00    +0.000 C 
ATOM      5  C   UNL     1     112.362 106.120 101.718  0.00  0.00    +0.000 C 
ATOM      6  S   UNL     1     112.342 106.733 100.728  0.00  0.00    +0.000 S 
ATOM      7  C   UNL     1     111.839 106.971 101.151  0.00  0.00    +0.000 C 
ATOM      8  C   UNL     1     112.676 106.197 101.079  0.00  0.00    +0.000 C 
ATOM      9  O   UNL     1     111.660 105.798 103.400  0.00  0.00    +0.000 OA
ATOM     10  C   UNL     1     112.653 106.806 100.099  0.00  0.00    +0.000 C 
ATOM     11  C   UNL     1     113.182 105.957 100.655  0.00  0.00    +0.000 C 
ATOM     12  C   UNL     1     113.184 106.314 100.056  0.00  0.00    +0.000 C 
ENDROOT
BRANCH   1  13
ATOM     13  C   UNL     1     110.992 107.031 102.429  0.00  0.00    +0.000 C 
BRANCH  13  14
ATOM     14  C   UNL     1     110.566 107.055 102.994  0.00  0.00    +0.000 A 
ATOM     15  C   UNL     1     110.726 107.480 103.532  0.00  0.00    +0.000 A 
ATOM     16  C   UNL     1     109.987 106.653 103.012  0.00  0.00    +0.000 A 
ATOM     17  C   UNL     1     110.303 107.509 104.101  0.00  0.00    +0.000 A 
ATOM     18  C   UNL     1     109.561 106.677 103.578  0.00  0.00    +0.000 A 
ATOM     19  C   UNL     1     109.717 107.105 104.124  0.00  0.00    +0.000 A 
ENDBRANCH  13  14
ENDBRANCH   1  13
BRANCH   2  20
ATOM     20  C   UNL     1     112.896 105.266 102.273  0.00  0.00    +0.000 C 
BRANCH  20  21
ATOM     21  C   UNL     1     113.005 104.810 102.805  0.00  0.00    +0.000 A 
ATOM     22  C   UNL     1     113.413 104.995 103.350  0.00  0.00    +0.000 A 
ATOM     23  C   UNL     1     112.701 104.169 102.781  0.00  0.00    +0.000 A 
ATOM     24  C   UNL     1     112.811 103.712 103.312  0.00  0.00    +0.000 A 
ATOM     25  C   UNL     1     113.520 104.538 103.878  0.00  0.00    +0.000 A 
ATOM     26  C   UNL     1     113.220 103.897 103.861  0.00  0.00    +0.000 A 
ENDBRANCH  20  21
ENDBRANCH   2  20
TORSDOF 4
ENDMDL
MODEL 7
REMARK VINA RESULT:      -9.3      1.802      2.568
REMARK  Name = 
REMARK  4 active torsions:
REMARK  status: ('A' for Active; 'I' for Inactive)
REMARK    1  A    between atoms: N_1  and  C_9
REMARK    2  A    between atoms: N_2  and  C_10
REMARK    3  A    between atoms: C_9  and  C_14
REMARK    4  A    between atoms: C_10  and  C_13
REMARK                            x       y       z     vdW  Elec       q    Type
REMARK                         _______ _______ _______ _____ _____    ______ ____
ROOT
ATOM      1  N   UNL     1     148.687 104.745 193.150  0.00  0.00    +0.000 N 
ATOM      2  N   UNL     1     147.525 104.520 193.104  0.00  0.00    +0.000 N 
ATOM      3  C   UNL     1     148.179 104.253 193.308  0.00  0.00    +0.000 C 
ATOM      4  C   UNL     1     148.360 105.301 192.857  0.00  0.00    +0.000 C 
ATOM      5  C   UNL     1     147.647 105.166 192.828  0.00  0.00    +0.000 C 
ATOM      6  S   UNL     1     147.843 106.221 192.375  0.00  0.00    +0.000 S 
ATOM      7  C   UNL     1     148.453 105.945 192.577  0.00  0.00    +0.000 C 
ATOM      8  C   UNL     1     147.331 105.735 192.530  0.00  0.00    +0.000 C 
ATOM      9  O   UNL     1     148.311 103.625 193.609  0.00  0.00    +0.000 OA
ATOM     10  C   UNL     1     147.529 106.780 192.082  0.00  0.00    +0.000 C 
ATOM     11  C   UNL     1     146.718 106.011 192.327  0.00  0.00    +0.000 C 
ATOM     12  C   UNL     1     146.817 106.644 192.053  0.00  0.00    +0.000 C 
ENDROOT
BRANCH   1  13
ATOM     13  C   UNL     1     149.381 104.880 193.177  0.00  0.00    +0.000 C 
BRANCH  13  14
ATOM     14  C   UNL     1     149.816 104.456 193.540  0.00  0.00    +0.000 A 
ATOM     15  C   UNL     1     149.932 104.582 194.224  0.00  0.00    +0.000 A 
ATOM     16  C   UNL     1     150.127 103.914 193.215  0.00  0.00    +0.000 A 
ATOM     17  C   UNL     1     150.367 104.160 194.593  0.00  0.00    +0.000 A 
ATOM     18  C   UNL     1     150.562 103.489 193.579  0.00  0.00    +0.000 A 
ATOM     19  C   UNL     1     150.684 103.610 194.269  0.00  0.00    +0.000 A 
ENDBRANCH  13  14
ENDBRANCH   1  13
BRANCH   2  20
ATOM     20  C   UNL     1     146.829 104.395 193.073  0.00  0.00    +0.000 C 
BRANCH  20  21
ATOM     21  C   UNL     1     146.574 103.772 193.294  0.00  0.00    +0.000 A 
ATOM     22  C   UNL     1     146.455 103.254 192.829  0.00  0.00    +0.000 A 
ATOM     23  C   UNL     1     146.440 103.677 193.984  0.00  0.00    +0.000 A 
ATOM     24  C   UNL     1     146.185 103.053 194.205  0.00  0.00    +0.000 A 
ATOM     25  C   UNL     1     146.201 102.635 193.052  0.00  0.00    +0.000 A 
ATOM     26  C   UNL     1     146.065 102.532 193.739  0.00  0.00    +0.000 A 
ENDBRANCH  20  21
ENDBRANCH   2  20
TORSDOF 4
ENDMDL
MODEL 8
REMARK VINA RESULT:      -9.3     48.148     48.791
REMARK  Name = 
REMARK  4 active torsions:
REMARK  status: ('A' for Active; 'I' for Inactive)
REMARK    1  A    between atoms: N_1  and  C_9
REMARK    2  A    between atoms: N_2  and  C_10
REMARK    3  A    between atoms: C_9  and  C_14
REMARK    4  A    between atoms: C_10  and  C_13
REMARK                            x       y       z     vdW  Elec       q    Type
REMARK                         _______ _______ _______ _____ _____    ______ ____
ROOT
ATOM      1  N   UNL     1     104.689 124.481 178.777  0.00  0.00    +0.000 N 
ATOM      2  N   UNL     1     104.606 124.413 179.956  0.00  0.00    +0.000 N 
ATOM      3  C   UNL     1     104.485 124.842 179.371  0.00  0.00    +0.000 C 
ATOM      4  C   UNL     1     104.929 123.847 178.985  0.00  0.00    +0.000 C 
ATOM      5  C   UNL     1     104.879 123.803 179.708  0.00  0.00    +0.000 C 
ATOM      6  S   UNL     1     105.327 122.806 179.306  0.00  0.00    +0.000 S 
ATOM      7  C   UNL     1     105.203 123.232 178.766  0.00  0.00    +0.000 C 
ATOM      8  C   UNL     1     105.126 123.159 179.903  0.00  0.00    +0.000 C 
ATOM      9  O   UNL     1     104.216 125.497 179.367  0.00  0.00    +0.000 OA
ATOM     10  C   UNL     1     105.568 122.173 179.501  0.00  0.00    +0.000 C 
ATOM     11  C   UNL     1     105.249 122.733 180.447  0.00  0.00    +0.000 C 
ATOM     12  C   UNL     1     105.518 122.129 180.223  0.00  0.00    +0.000 C 
ENDROOT
BRANCH   1  13
ATOM     13  C   UNL     1     104.739 124.520 178.072  0.00  0.00    +0.000 C 
BRANCH  13  14
ATOM     14  C   UNL     1     104.583 125.122 177.734  0.00  0.00    +0.000 A 
ATOM     15  C   UNL     1     103.929 125.227 177.495  0.00  0.00    +0.000 A 
ATOM     16  C   UNL     1     105.084 125.609 177.640  0.00  0.00    +0.000 A 
ATOM     17  C   UNL     1     103.767 125.829 177.156  0.00  0.00    +0.000 A 
ATOM     18  C   UNL     1     104.928 126.212 177.302  0.00  0.00    +0.000 A 
ATOM     19  C   UNL     1     104.269 126.324 177.058  0.00  0.00    +0.000 A 
ENDBRANCH  13  14
ENDBRANCH   1  13
BRANCH   2  20
ATOM     20  C   UNL     1     104.560 124.363 180.661  0.00  0.00    +0.000 C 
BRANCH  20  21
ATOM     21  C   UNL     1     104.313 124.911 181.037  0.00  0.00    +0.000 A 
ATOM     22  C   UNL     1     103.619 124.983 181.141  0.00  0.00    +0.000 A 
ATOM     23  C   UNL     1     104.770 125.383 181.304  0.00  0.00    +0.000 A 
ATOM     24  C   UNL     1     104.523 125.931 181.680  0.00  0.00    +0.000 A 
ATOM     25  C   UNL     1     103.376 125.530 181.515  0.00  0.00    +0.000 A 
ATOM     26  C   UNL     1     103.825 126.005 181.785  0.00  0.00    +0.000 A 
ENDBRANCH  20  21
ENDBRANCH   2  20
TORSDOF 4
ENDMDL
MODEL 9
REMARK VINA RESULT:      -9.2     66.097     67.841
REMARK  Name = 
REMARK  4 active torsions:
REMARK  status: ('A' for Active; 'I' for Inactive)
REMARK    1  A    between atoms: N_1  and  C_9
REMARK    2  A    between atoms: N_2  and  C_10
REMARK    3  A    between atoms: C_9  and  C_14
REMARK    4  A    between atoms: C_10  and  C_13
REMARK                            x       y       z     vdW  Elec       q    Type
REMARK                         _______ _______ _______ _____ _____    ______ ____
ROOT
ATOM      1  N   UNL     1     124.131 138.521 139.334  0.00  0.00    +0.000 N 
ATOM      2  N   UNL     1     123.441 138.075 138.481  0.00  0.00    +0.000 N 
ATOM      3  C   UNL     1     123.845 138.656 138.682  0.00  0.00    +0.000 C 
ATOM      4  C   UNL     1     123.912 137.876 139.533  0.00  0.00    +0.000 C 
ATOM      5  C   UNL     1     123.489 137.601 139.011  0.00  0.00    +0.000 C 
ATOM      6  S   UNL     1     123.565 136.824 139.876  0.00  0.00    +0.000 S 
ATOM      7  C   UNL     1     123.943 137.388 140.045  0.00  0.00    +0.000 C 
ATOM      8  C   UNL     1     123.277 136.951 139.226  0.00  0.00    +0.000 C 
ATOM      9  O   UNL     1     123.950 139.254 138.317  0.00  0.00    +0.000 OA
ATOM     10  C   UNL     1     123.354 136.185 140.084  0.00  0.00    +0.000 C 
ATOM     11  C   UNL     1     122.897 136.386 139.055  0.00  0.00    +0.000 C 
ATOM     12  C   UNL     1     122.932 135.910 139.563  0.00  0.00    +0.000 C 
ENDROOT
BRANCH   1  13
ATOM     13  C   UNL     1     124.543 138.786 139.845  0.00  0.00    +0.000 C 
BRANCH  13  14
ATOM     14  C   UNL     1     124.800 139.443 139.794  0.00  0.00    +0.000 A 
ATOM     15  C   UNL     1     124.428 139.983 140.051  0.00  0.00    +0.000 A 
ATOM     16  C   UNL     1     125.425 139.551 139.486  0.00  0.00    +0.000 A 
ATOM     17  C   UNL     1     124.681 140.644 140.002  0.00  0.00    +0.000 A 
ATOM     18  C   UNL     1     125.682 140.209 139.434  0.00  0.00    +0.000 A 
ATOM     19  C   UNL     1     125.312 140.758 139.692  0.00  0.00    +0.000 A 
ENDBRANCH  13  14
ENDBRANCH   1  13
BRANCH   2  20
ATOM     20  C   UNL     1     123.028 137.800 137.977  0.00  0.00    +0.000 C 
BRANCH  20  21
ATOM     21  C   UNL     1     122.885 138.178 137.395  0.00  0.00    +0.000 A 
ATOM     22  C   UNL     1     122.324 138.606 137.381  0.00  0.00    +0.000 A 
ATOM     23  C   UNL     1     123.311 138.122 136.830  0.00  0.00    +0.000 A 
ATOM     24  C   UNL     1     123.169 138.500 136.248  0.00  0.00    +0.000 A 
ATOM     25  C   UNL     1     122.184 138.982 136.800  0.00  0.00    +0.000 A 
ATOM     26  C   UNL     1     122.605 138.931 136.232  0.00  0.00    +0.000 A 
ENDBRANCH  20  21
ENDBRANCH   2  20
TORSDOF 4
ENDMDL
MODEL 10
REMARK VINA RESULT:      -9.1     65.941     67.752
REMARK  Name = 
REMARK  4 active torsions:
REMARK  status: ('A' for Active; 'I' for Inactive)
REMARK    1  A    between atoms: N_1  and  C_9
REMARK    2  A    between atoms: N_2  and  C_10
REMARK    3  A    between atoms: C_9  and  C_14
REMARK    4  A    between atoms: C_10  and  C_13
REMARK                            x       y       z     vdW  Elec       q    Type
REMARK                         _______ _______ _______ _____ _____    ______ ____
ROOT
ATOM      1  N   UNL     1     123.513 138.082 138.524  0.00  0.00    +0.000 N 
ATOM      2  N   UNL     1     124.156 138.571 139.389  0.00  0.00    +0.000 N 
ATOM      3  C   UNL     1     123.875 138.679 138.718  0.00  0.00    +0.000 C 
ATOM      4  C   UNL     1     123.567 137.618 139.056  0.00  0.00    +0.000 C 
ATOM      5  C   UNL     1     123.961 137.915 139.588  0.00  0.00    +0.000 C 
ATOM      6  S   UNL     1     123.643 136.844 139.917  0.00  0.00    +0.000 S 
ATOM      7  C   UNL     1     123.387 136.970 139.279  0.00  0.00    +0.000 C 
ATOM      8  C   UNL     1     124.006 137.435 140.118  0.00  0.00    +0.000 C 
ATOM      9  O   UNL     1     123.936 139.258 138.315  0.00  0.00    +0.000 OA
ATOM     10  C   UNL     1     123.690 136.374 140.440  0.00  0.00    +0.000 C 
ATOM     11  C   UNL     1     124.265 137.311 140.759  0.00  0.00    +0.000 C 
ATOM     12  C   UNL     1     124.084 136.671 140.971  0.00  0.00    +0.000 C 
ENDROOT
BRANCH   1  13
ATOM     13  C   UNL     1     123.128 137.789 138.007  0.00  0.00    +0.000 C 
BRANCH  13  14
ATOM     14  C   UNL     1     122.949 138.165 137.435  0.00  0.00    +0.000 A 
ATOM     15  C   UNL     1     122.346 138.530 137.434  0.00  0.00    +0.000 A 
ATOM     16  C   UNL     1     123.375 138.171 136.873  0.00  0.00    +0.000 A 
ATOM     17  C   UNL     1     122.162 138.909 136.863  0.00  0.00    +0.000 A 
ATOM     18  C   UNL     1     123.196 138.548 136.301  0.00  0.00    +0.000 A 
ATOM     19  C   UNL     1     122.589 138.918 136.293  0.00  0.00    +0.000 A 
ENDBRANCH  13  14
ENDBRANCH   1  13
BRANCH   2  20
ATOM     20  C   UNL     1     124.540 138.855 139.912  0.00  0.00    +0.000 C 
BRANCH  20  21
ATOM     21  C   UNL     1     124.800 139.511 139.841  0.00  0.00    +0.000 A 
ATOM     22  C   UNL     1     125.436 139.608 139.550  0.00  0.00    +0.000 A 
ATOM     23  C   UNL     1     124.416 140.063 140.065  0.00  0.00    +0.000 A 
ATOM     24  C   UNL     1     124.676 140.719 139.994  0.00  0.00    +0.000 A 
ATOM     25  C   UNL     1     125.692 140.262 139.480  0.00  0.00    +0.000 A 
ATOM     26  C   UNL     1     125.315 140.818 139.701  0.00  0.00    +0.000 A 
ENDBRANCH  20  21
ENDBRANCH   2  20
TORSDOF 4
ENDMDL
MODEL 11
REMARK VINA RESULT:      -9.0     43.117     43.857
REMARK  Name = 
REMARK  4 active torsions:
REMARK  status: ('A' for Active; 'I' for Inactive)
REMARK    1  A    between atoms: N_1  and  C_9
REMARK    2  A    between atoms: N_2  and  C_10
REMARK    3  A    between atoms: C_9  and  C_14
REMARK    4  A    between atoms: C_10  and  C_13
REMARK                            x       y       z     vdW  Elec       q    Type
REMARK                         _______ _______ _______ _____ _____    ______ ____
ROOT
ATOM      1  N   UNL     1     106.298 120.565 190.479  0.00  0.00    +0.000 N 
ATOM      2  N   UNL     1     106.356 120.805 191.637  0.00  0.00    +0.000 N 
ATOM      3  C   UNL     1     106.516 121.056 190.965  0.00  0.00    +0.000 C 
ATOM      4  C   UNL     1     106.012 120.024 190.837  0.00  0.00    +0.000 C 
ATOM      5  C   UNL     1     106.046 120.169 191.548  0.00  0.00    +0.000 C 
ATOM      6  S   UNL     1     105.540 119.130 191.406  0.00  0.00    +0.000 S 
ATOM      7  C   UNL     1     105.702 119.391 190.778  0.00  0.00    +0.000 C 
ATOM      8  C   UNL     1     105.754 119.615 191.896  0.00  0.00    +0.000 C 
ATOM      9  O   UNL     1     106.828 121.670 190.799  0.00  0.00    +0.000 OA
ATOM     10  C   UNL     1     105.253 118.587 191.752  0.00  0.00    +0.000 C 
ATOM     11  C   UNL     1     105.593 119.356 192.528  0.00  0.00    +0.000 C 
ATOM     12  C   UNL     1     105.288 118.732 192.461  0.00  0.00    +0.000 C 
ENDROOT
BRANCH   1  13
ATOM     13  C   UNL     1     106.262 120.420 189.787  0.00  0.00    +0.000 C 
BRANCH  13  14
ATOM     14  C   UNL     1     106.445 120.908 189.308  0.00  0.00    +0.000 A 
ATOM     15  C   UNL     1     105.963 121.370 189.083  0.00  0.00    +0.000 A 
ATOM     16  C   UNL     1     107.105 120.927 189.063  0.00  0.00    +0.000 A 
ATOM     17  C   UNL     1     106.140 121.862 188.603  0.00  0.00    +0.000 A 
ATOM     18  C   UNL     1     107.287 121.417 188.584  0.00  0.00    +0.000 A 
ATOM     19  C   UNL     1     106.806 121.885 188.352  0.00  0.00    +0.000 A 
ENDBRANCH  13  14
ENDBRANCH   1  13
BRANCH   2  20
ATOM     20  C   UNL     1     106.387 120.940 192.331  0.00  0.00    +0.000 C 
BRANCH  20  21
ATOM     21  C   UNL     1     106.669 121.549 192.559  0.00  0.00    +0.000 A 
ATOM     22  C   UNL     1     107.358 121.583 192.710  0.00  0.00    +0.000 A 
ATOM     23  C   UNL     1     106.253 122.119 192.632  0.00  0.00    +0.000 A 
ATOM     24  C   UNL     1     106.536 122.728 192.860  0.00  0.00    +0.000 A 
ATOM     25  C   UNL     1     107.636 122.191 192.936  0.00  0.00    +0.000 A 
ATOM     26  C   UNL     1     107.228 122.764 193.012  0.00  0.00    +0.000 A 
ENDBRANCH  20  21
ENDBRANCH   2  20
TORSDOF 4
ENDMDL
MODEL 12
REMARK VINA RESULT:      -9.0      1.933      3.437
REMARK  Name = 
REMARK  4 active torsions:
REMARK  status: ('A' for Active; 'I' for Inactive)
REMARK    1  A    between atoms: N_1  and  C_9
REMARK    2  A    between atoms: N_2  and  C_10
REMARK    3  A    between atoms: C_9  and  C_14
REMARK    4  A    between atoms: C_10  and  C_13
REMARK                            x       y       z     vdW  Elec       q    Type
REMARK                         _______ _______ _______ _____ _____    ______ ____
ROOT
ATOM      1  N   UNL     1     148.626 104.352 193.603  0.00  0.00    +0.000 N 
ATOM      2  N   UNL     1     147.882 104.755 192.775  0.00  0.00    +0.000 N 
ATOM      3  C   UNL     1     148.539 104.856 193.091  0.00  0.00    +0.000 C 
ATOM      4  C   UNL     1     148.043 103.949 193.607  0.00  0.00    +0.000 C 
ATOM      5  C   UNL     1     147.585 104.194 193.100  0.00  0.00    +0.000 C 
ATOM      6  S   UNL     1     147.097 103.278 193.629  0.00  0.00    +0.000 S 
ATOM      7  C   UNL     1     147.725 103.395 193.913  0.00  0.00    +0.000 C 
ATOM      8  C   UNL     1     147.002 103.778 193.116  0.00  0.00    +0.000 C 
ATOM      9  O   UNL     1     149.017 105.355 192.935  0.00  0.00    +0.000 OA
ATOM     10  C   UNL     1     146.522 102.870 193.642  0.00  0.00    +0.000 C 
ATOM     11  C   UNL     1     146.372 103.662 192.830  0.00  0.00    +0.000 C 
ATOM     12  C   UNL     1     146.065 103.115 193.136  0.00  0.00    +0.000 C 
ENDROOT
BRANCH   1  13
ATOM     13  C   UNL     1     149.070 104.110 194.099  0.00  0.00    +0.000 C 
BRANCH  13  14
ATOM     14  C   UNL     1     149.714 104.395 194.174  0.00  0.00    +0.000 A 
ATOM     15  C   UNL     1     149.799 104.951 194.599  0.00  0.00    +0.000 A 
ATOM     16  C   UNL     1     150.261 104.121 193.825  0.00  0.00    +0.000 A 
ATOM     17  C   UNL     1     150.442 105.241 194.678  0.00  0.00    +0.000 A 
ATOM     18  C   UNL     1     150.905 104.407 193.900  0.00  0.00    +0.000 A 
ATOM     19  C   UNL     1     150.998 104.967 194.327  0.00  0.00    +0.000 A 
ENDBRANCH  13  14
ENDBRANCH   1  13
BRANCH   2  20
ATOM     20  C   UNL     1     147.430 104.988 192.283  0.00  0.00    +0.000 C 
BRANCH  20  21
ATOM     21  C   UNL     1     147.601 105.552 191.889  0.00  0.00    +0.000 A 
ATOM     22  C   UNL     1     147.940 105.464 191.276  0.00  0.00    +0.000 A 
ATOM     23  C   UNL     1     147.428 106.201 192.117  0.00  0.00    +0.000 A 
ATOM     24  C   UNL     1     147.599 106.765 191.723  0.00  0.00    +0.000 A 
ATOM     25  C   UNL     1     148.109 106.028 190.886  0.00  0.00    +0.000 A 
ATOM     26  C   UNL     1     147.940 106.679 191.107  0.00  0.00    +0.000 A 
ENDBRANCH  20  21
ENDBRANCH   2  20
TORSDOF 4
ENDMDL
MODEL 13
REMARK VINA RESULT:      -8.9     69.025     70.199
REMARK  Name = 
REMARK  4 active torsions:
REMARK  status: ('A' for Active; 'I' for Inactive)
REMARK    1  A    between atoms: N_1  and  C_9
REMARK    2  A    between atoms: N_2  and  C_10
REMARK    3  A    between atoms: C_9  and  C_14
REMARK    4  A    between atoms: C_10  and  C_13
REMARK                            x       y       z     vdW  Elec       q    Type
REMARK                         _______ _______ _______ _____ _____    ______ ____
ROOT
ATOM      1  N   UNL     1     103.380 145.065 154.452  0.00  0.00    +0.000 N 
ATOM      2  N   UNL     1     104.104 145.095 155.388  0.00  0.00    +0.000 N 
ATOM      3  C   UNL     1     103.924 145.431 154.759  0.00  0.00    +0.000 C 
ATOM      4  C   UNL     1     103.226 144.518 154.876  0.00  0.00    +0.000 C 
ATOM      5  C   UNL     1     103.669 144.534 155.451  0.00  0.00    +0.000 C 
ATOM      6  S   UNL     1     102.959 143.617 155.557  0.00  0.00    +0.000 S 
ATOM      7  C   UNL     1     102.806 143.954 154.963  0.00  0.00    +0.000 C 
ATOM      8  C   UNL     1     103.502 143.977 155.869  0.00  0.00    +0.000 C 
ATOM      9  O   UNL     1     104.219 146.013 154.484  0.00  0.00    +0.000 OA
ATOM     10  C   UNL     1     102.797 143.070 155.970  0.00  0.00    +0.000 C 
ATOM     11  C   UNL     1     103.657 143.641 156.466  0.00  0.00    +0.000 C 
ATOM     12  C   UNL     1     103.240 143.087 156.544  0.00  0.00    +0.000 C 
ENDROOT
BRANCH   1  13
ATOM     13  C   UNL     1     102.946 145.045 153.893  0.00  0.00    +0.000 C 
BRANCH  13  14
ATOM     14  C   UNL     1     103.048 145.480 153.344  0.00  0.00    +0.000 A 
ATOM     15  C   UNL     1     102.709 146.097 153.323  0.00  0.00    +0.000 A 
ATOM     16  C   UNL     1     103.488 145.291 152.826  0.00  0.00    +0.000 A 
ATOM     17  C   UNL     1     102.808 146.537 152.775  0.00  0.00    +0.000 A 
ATOM     18  C   UNL     1     103.590 145.727 152.277  0.00  0.00    +0.000 A 
ATOM     19  C   UNL     1     103.251 146.351 152.249  0.00  0.00    +0.000 A 
ENDBRANCH  13  14
ENDBRANCH   1  13
BRANCH   2  20
ATOM     20  C   UNL     1     104.533 145.105 155.952  0.00  0.00    +0.000 C 
BRANCH  20  21
ATOM     21  C   UNL     1     105.006 145.629 156.024  0.00  0.00    +0.000 A 
ATOM     22  C   UNL     1     105.651 145.562 155.745  0.00  0.00    +0.000 A 
ATOM     23  C   UNL     1     104.824 146.215 156.378  0.00  0.00    +0.000 A 
ATOM     24  C   UNL     1     105.297 146.739 156.450  0.00  0.00    +0.000 A 
ATOM     25  C   UNL     1     106.120 146.084 155.818  0.00  0.00    +0.000 A 
ATOM     26  C   UNL     1     105.945 146.673 156.170  0.00  0.00    +0.000 A 
ENDBRANCH  20  21
ENDBRANCH   2  20
TORSDOF 4
ENDMDL
MODEL 14
REMARK VINA RESULT:      -8.9     42.971     43.873
REMARK  Name = 
REMARK  4 active torsions:
REMARK  status: ('A' for Active; 'I' for Inactive)
REMARK    1  A    between atoms: N_1  and  C_9
REMARK    2  A    between atoms: N_2  and  C_10
REMARK    3  A    between atoms: C_9  and  C_14
REMARK    4  A    between atoms: C_10  and  C_13
REMARK                            x       y       z     vdW  Elec       q    Type
REMARK                         _______ _______ _______ _____ _____    ______ ____
ROOT
ATOM      1  N   UNL     1     106.065 120.019 190.855  0.00  0.00    +0.000 N 
ATOM      2  N   UNL     1     105.977 120.198 189.688  0.00  0.00    +0.000 N 
ATOM      3  C   UNL     1     106.306 120.425 190.305  0.00  0.00    +0.000 C 
ATOM      4  C   UNL     1     105.601 119.554 190.589  0.00  0.00    +0.000 C 
ATOM      5  C   UNL     1     105.545 119.662 189.873  0.00  0.00    +0.000 C 
ATOM      6  S   UNL     1     104.839 118.785 190.172  0.00  0.00    +0.000 S 
ATOM      7  C   UNL     1     105.165 119.019 190.745  0.00  0.00    +0.000 C 
ATOM      8  C   UNL     1     105.074 119.186 189.619  0.00  0.00    +0.000 C 
ATOM      9  O   UNL     1     106.779 120.948 190.372  0.00  0.00    +0.000 OA
ATOM     10  C   UNL     1     104.376 118.318 189.919  0.00  0.00    +0.000 C 
ATOM     11  C   UNL     1     104.748 118.953 189.042  0.00  0.00    +0.000 C 
ATOM     12  C   UNL     1     104.320 118.426 189.204  0.00  0.00    +0.000 C 
ENDROOT
BRANCH   1  13
ATOM     13  C   UNL     1     106.117 119.910 191.553  0.00  0.00    +0.000 C 
BRANCH  13  14
ATOM     14  C   UNL     1     106.562 120.298 191.944  0.00  0.00    +0.000 A 
ATOM     15  C   UNL     1     107.220 120.071 192.048  0.00  0.00    +0.000 A 
ATOM     16  C   UNL     1     106.341 120.906 192.224  0.00  0.00    +0.000 A 
ATOM     17  C   UNL     1     107.670 120.456 192.440  0.00  0.00    +0.000 A 
ATOM     18  C   UNL     1     106.786 121.294 192.615  0.00  0.00    +0.000 A 
ATOM     19  C   UNL     1     107.452 121.071 192.725  0.00  0.00    +0.000 A 
ENDBRANCH  13  14
ENDBRANCH   1  13
BRANCH   2  20
ATOM     20  C   UNL     1     105.917 120.297 188.989  0.00  0.00    +0.000 C 
BRANCH  20  21
ATOM     21  C   UNL     1     106.287 120.814 188.675  0.00  0.00    +0.000 A 
ATOM     22  C   UNL     1     106.011 121.461 188.619  0.00  0.00    +0.000 A 
ATOM     23  C   UNL     1     106.934 120.673 188.421  0.00  0.00    +0.000 A 
ATOM     24  C   UNL     1     107.304 121.190 188.107  0.00  0.00    +0.000 A 
ATOM     25  C   UNL     1     106.382 121.974 188.306  0.00  0.00    +0.000 A 
ATOM     26  C   UNL     1     107.028 121.841 188.049  0.00  0.00    +0.000 A 
ENDBRANCH  20  21
ENDBRANCH   2  20
TORSDOF 4
ENDMDL
MODEL 15
REMARK VINA RESULT:      -8.8     66.356     67.365
REMARK  Name = 
REMARK  4 active torsions:
REMARK  status: ('A' for Active; 'I' for Inactive)
REMARK    1  A    between atoms: N_1  and  C_9
REMARK    2  A    between atoms: N_2  and  C_10
REMARK    3  A    between atoms: C_9  and  C_14
REMARK    4  A    between atoms: C_10  and  C_13
REMARK                            x       y       z     vdW  Elec       q    Type
REMARK                         _______ _______ _______ _____ _____    ______ ____
ROOT
ATOM      1  N   UNL     1     103.153 144.151 160.400  0.00  0.00    +0.000 N 
ATOM      2  N   UNL     1     103.081 143.931 159.239  0.00  0.00    +0.000 N 
ATOM      3  C   UNL     1     103.516 143.887 159.830  0.00  0.00    +0.000 C 
ATOM      4  C   UNL     1     102.513 144.352 160.170  0.00  0.00    +0.000 C 
ATOM      5  C   UNL     1     102.467 144.218 159.458  0.00  0.00    +0.000 C 
ATOM      6  S   UNL     1     101.462 144.687 159.814  0.00  0.00    +0.000 S 
ATOM      7  C   UNL     1     101.893 144.635 160.362  0.00  0.00    +0.000 C 
ATOM      8  C   UNL     1     101.817 144.426 159.241  0.00  0.00    +0.000 C 
ATOM      9  O   UNL     1     104.177 143.635 159.860  0.00  0.00    +0.000 OA
ATOM     10  C   UNL     1     100.823 144.891 159.597  0.00  0.00    +0.000 C 
ATOM     11  C   UNL     1     101.385 144.478 158.690  0.00  0.00    +0.000 C 
ATOM     12  C   UNL     1     100.777 144.757 158.886  0.00  0.00    +0.000 C 
ENDROOT
BRANCH   1  13
ATOM     13  C   UNL     1     103.195 144.283 161.094  0.00  0.00    +0.000 C 
BRANCH  13  14
ATOM     14  C   UNL     1     103.806 144.195 161.440  0.00  0.00    +0.000 A 
ATOM     15  C   UNL     1     103.960 143.568 161.721  0.00  0.00    +0.000 A 
ATOM     16  C   UNL     1     104.254 144.736 161.500  0.00  0.00    +0.000 A 
ATOM     17  C   UNL     1     104.571 143.474 162.069  0.00  0.00    +0.000 A 
ATOM     18  C   UNL     1     104.866 144.648 161.846  0.00  0.00    +0.000 A 
ATOM     19  C   UNL     1     105.027 144.018 162.132  0.00  0.00    +0.000 A 
ENDBRANCH  13  14
ENDBRANCH   1  13
BRANCH   2  20
ATOM     20  C   UNL     1     103.029 143.804 158.544  0.00  0.00    +0.000 C 
BRANCH  20  21
ATOM     21  C   UNL     1     103.577 143.518 158.197  0.00  0.00    +0.000 A 
ATOM     22  C   UNL     1     104.057 143.937 157.892  0.00  0.00    +0.000 A 
ATOM     23  C   UNL     1     103.637 142.813 158.161  0.00  0.00    +0.000 A 
ATOM     24  C   UNL     1     104.185 142.528 157.814  0.00  0.00    +0.000 A 
ATOM     25  C   UNL     1     104.602 143.650 157.547  0.00  0.00    +0.000 A 
ATOM     26  C   UNL     1     104.668 142.946 157.506  0.00  0.00    +0.000 A 
ENDBRANCH  20  21
ENDBRANCH   2  20
TORSDOF 4
ENDMDL
MODEL 16
REMARK VINA RESULT:      -8.8     41.921     42.859
REMARK  Name = 
REMARK  4 active torsions:
REMARK  status: ('A' for Active; 'I' for Inactive)
REMARK    1  A    between atoms: N_1  and  C_9
REMARK    2  A    between atoms: N_2  and  C_10
REMARK    3  A    between atoms: C_9  and  C_14
REMARK    4  A    between atoms: C_10  and  C_13
REMARK                            x       y       z     vdW  Elec       q    Type
REMARK                         _______ _______ _______ _____ _____    ______ ____
ROOT
ATOM      1  N   UNL     1     107.264 120.222 189.561  0.00  0.00    +0.000 N 
ATOM      2  N   UNL     1     107.321 119.999 190.723  0.00  0.00    +0.000 N 
ATOM      3  C   UNL     1     107.026 120.436 190.211  0.00  0.00    +0.000 C 
ATOM      4  C   UNL     1     107.695 119.668 189.665  0.00  0.00    +0.000 C 
ATOM      5  C   UNL     1     107.731 119.530 190.377  0.00  0.00    +0.000 C 
ATOM      6  S   UNL     1     108.402 118.761 189.815  0.00  0.00    +0.000 S 
ATOM      7  C   UNL     1     108.109 119.190 189.347  0.00  0.00    +0.000 C 
ATOM      8  C   UNL     1     108.168 118.969 190.466  0.00  0.00    +0.000 C 
ATOM      9  O   UNL     1     106.582 120.979 190.314  0.00  0.00    +0.000 OA
ATOM     10  C   UNL     1     108.832 118.210 189.906  0.00  0.00    +0.000 C 
ATOM     11  C   UNL     1     108.462 118.540 190.938  0.00  0.00    +0.000 C 
ATOM     12  C   UNL     1     108.868 118.072 190.617  0.00  0.00    +0.000 C 
ENDROOT
BRANCH   1  13
ATOM     13  C   UNL     1     107.231 120.354 188.867  0.00  0.00    +0.000 C 
BRANCH  13  14
ATOM     14  C   UNL     1     106.810 120.865 188.618  0.00  0.00    +0.000 A 
ATOM     15  C   UNL     1     106.144 120.712 188.443  0.00  0.00    +0.000 A 
ATOM     16  C   UNL     1     107.059 121.521 188.549  0.00  0.00    +0.000 A 
ATOM     17  C   UNL     1     105.717 121.221 188.194  0.00  0.00    +0.000 A 
ATOM     18  C   UNL     1     106.637 122.032 188.300  0.00  0.00    +0.000 A 
ATOM     19  C   UNL     1     105.965 121.885 188.122  0.00  0.00    +0.000 A 
ENDBRANCH  13  14
ENDBRANCH   1  13
BRANCH   2  20
ATOM     20  C   UNL     1     107.361 119.858 191.416  0.00  0.00    +0.000 C 
BRANCH  20  21
ATOM     21  C   UNL     1     106.996 120.254 191.876  0.00  0.00    +0.000 A 
ATOM     22  C   UNL     1     107.282 120.843 192.139  0.00  0.00    +0.000 A 
ATOM     23  C   UNL     1     106.344 120.052 192.068  0.00  0.00    +0.000 A 
ATOM     24  C   UNL     1     105.979 120.448 192.529  0.00  0.00    +0.000 A 
ATOM     25  C   UNL     1     106.916 121.236 192.598  0.00  0.00    +0.000 A 
ATOM     26  C   UNL     1     106.265 121.040 192.794  0.00  0.00    +0.000 A 
ENDBRANCH  20  21
ENDBRANCH   2  20
TORSDOF 4
ENDMDL
MODEL 17
REMARK VINA RESULT:      -8.7     89.469     91.154
REMARK  Name = 
REMARK  4 active torsions:
REMARK  status: ('A' for Active; 'I' for Inactive)
REMARK    1  A    between atoms: N_1  and  C_9
REMARK    2  A    between atoms: N_2  and  C_10
REMARK    3  A    between atoms: C_9  and  C_14
REMARK    4  A    between atoms: C_10  and  C_13
REMARK                            x       y       z     vdW  Elec       q    Type
REMARK                         _______ _______ _______ _____ _____    ______ ____
ROOT
ATOM      1  N   UNL     1     111.799 150.210 122.940  0.00  0.00    +0.000 N 
ATOM      2  N   UNL     1     111.714 150.937 122.008  0.00  0.00    +0.000 N 
ATOM      3  C   UNL     1     111.956 150.876 122.700  0.00  0.00    +0.000 C 
ATOM      4  C   UNL     1     111.470 149.867 122.414  0.00  0.00    +0.000 C 
ATOM      5  C   UNL     1     111.417 150.311 121.842  0.00  0.00    +0.000 C 
ATOM      6  S   UNL     1     110.930 149.289 121.566  0.00  0.00    +0.000 S 
ATOM      7  C   UNL     1     111.168 149.256 122.222  0.00  0.00    +0.000 C 
ATOM      8  C   UNL     1     111.083 149.951 121.320  0.00  0.00    +0.000 C 
ATOM      9  O   UNL     1     112.288 151.370 123.084  0.00  0.00    +0.000 OA
ATOM     10  C   UNL     1     110.601 148.938 121.050  0.00  0.00    +0.000 C 
ATOM     11  C   UNL     1     110.844 149.987 120.660  0.00  0.00    +0.000 C 
ATOM     12  C   UNL     1     110.548 149.381 120.479  0.00  0.00    +0.000 C 
ENDROOT
BRANCH   1  13
ATOM     13  C   UNL     1     111.849 149.775 123.496  0.00  0.00    +0.000 C 
BRANCH  13  14
ATOM     14  C   UNL     1     112.166 149.989 124.091  0.00  0.00    +0.000 A 
ATOM     15  C   UNL     1     112.855 149.869 124.179  0.00  0.00    +0.000 A 
ATOM     16  C   UNL     1     111.791 150.318 124.589  0.00  0.00    +0.000 A 
ATOM     17  C   UNL     1     113.179 150.081 124.774  0.00  0.00    +0.000 A 
ATOM     18  C   UNL     1     112.109 150.531 125.185  0.00  0.00    +0.000 A 
ATOM     19  C   UNL     1     112.804 150.414 125.280  0.00  0.00    +0.000 A 
ENDBRANCH  13  14
ENDBRANCH   1  13
BRANCH   2  20
ATOM     20  C   UNL     1     111.659 151.363 121.446  0.00  0.00    +0.000 C 
BRANCH  20  21
ATOM     21  C   UNL     1     111.914 152.024 121.480  0.00  0.00    +0.000 A 
ATOM     22  C   UNL     1     112.588 152.151 121.314  0.00  0.00    +0.000 A 
ATOM     23  C   UNL     1     111.486 152.552 121.683  0.00  0.00    +0.000 A 
ATOM     24  C   UNL     1     111.740 153.212 121.717  0.00  0.00    +0.000 A 
ATOM     25  C   UNL     1     112.839 152.810 121.349  0.00  0.00    +0.000 A 
ATOM     26  C   UNL     1     112.418 153.342 121.550  0.00  0.00    +0.000 A 
ENDBRANCH  20  21
ENDBRANCH   2  20
TORSDOF 4
ENDMDL
MODEL 18
REMARK VINA RESULT:      -8.7     61.200     61.894
REMARK  Name = 
REMARK  4 active torsions:
REMARK  status: ('A' for Active; 'I' for Inactive)
REMARK    1  A    between atoms: N_1  and  C_9
REMARK    2  A    between atoms: N_2  and  C_10
REMARK    3  A    between atoms: C_9  and  C_14
REMARK    4  A    between atoms: C_10  and  C_13
REMARK                            x       y       z     vdW  Elec       q    Type
REMARK                         _______ _______ _______ _____ _____    ______ ____
ROOT
ATOM      1  N   UNL     1      98.981 134.916 167.965  0.00  0.00    +0.000 N 
ATOM      2  N   UNL     1      99.588 135.397 167.069  0.00  0.00    +0.000 N 
ATOM      3  C   UNL     1      99.381 134.764 167.380  0.00  0.00    +0.000 C 
ATOM      4  C   UNL     1      98.940 135.622 168.016  0.00  0.00    +0.000 C 
ATOM      5  C   UNL     1      99.311 135.919 167.468  0.00  0.00    +0.000 C 
ATOM      6  S   UNL     1      98.861 136.775 168.117  0.00  0.00    +0.000 S 
ATOM      7  C   UNL     1      98.677 136.160 168.394  0.00  0.00    +0.000 C 
ATOM      8  C   UNL     1      99.261 136.631 167.533  0.00  0.00    +0.000 C 
ATOM      9  O   UNL     1      99.535 134.107 167.162  0.00  0.00    +0.000 OA
ATOM     10  C   UNL     1      98.813 137.475 168.178  0.00  0.00    +0.000 C 
ATOM     11  C   UNL     1      99.446 137.247 167.253  0.00  0.00    +0.000 C 
ATOM     12  C   UNL     1      99.184 137.772 167.630  0.00  0.00    +0.000 C 
ENDROOT
BRANCH   1  13
ATOM     13  C   UNL     1      98.617 134.630 168.501  0.00  0.00    +0.000 C 
BRANCH  13  14
ATOM     14  C   UNL     1      98.753 133.969 168.713  0.00  0.00    +0.000 A 
ATOM     15  C   UNL     1      99.257 133.854 169.192  0.00  0.00    +0.000 A 
ATOM     16  C   UNL     1      98.382 133.433 168.445  0.00  0.00    +0.000 A 
ATOM     17  C   UNL     1      99.397 133.193 169.408  0.00  0.00    +0.000 A 
ATOM     18  C   UNL     1      98.518 132.771 168.658  0.00  0.00    +0.000 A 
ATOM     19  C   UNL     1      99.026 132.648 169.140  0.00  0.00    +0.000 A 
ENDBRANCH  13  14
ENDBRANCH   1  13
BRANCH   2  20
ATOM     20  C   UNL     1      99.948 135.694 166.537  0.00  0.00    +0.000 C 
BRANCH  20  21
ATOM     21  C   UNL     1     100.224 135.284 166.028  0.00  0.00    +0.000 A 
ATOM     22  C   UNL     1      99.837 135.113 165.464  0.00  0.00    +0.000 A 
ATOM     23  C   UNL     1     100.891 135.050 166.094  0.00  0.00    +0.000 A 
ATOM     24  C   UNL     1     101.167 134.641 165.586  0.00  0.00    +0.000 A 
ATOM     25  C   UNL     1     100.114 134.705 164.959  0.00  0.00    +0.000 A 
ATOM     26  C   UNL     1     100.779 134.468 165.018  0.00  0.00    +0.000 A 
ENDBRANCH  20  21
ENDBRANCH   2  20
TORSDOF 4
ENDMDL
MODEL 19
REMARK VINA RESULT:      -8.6     42.116     43.028
REMARK  Name = 
REMARK  4 active torsions:
REMARK  status: ('A' for Active; 'I' for Inactive)
REMARK    1  A    between atoms: N_1  and  C_9
REMARK    2  A    between atoms: N_2  and  C_10
REMARK    3  A    between atoms: C_9  and  C_14
REMARK    4  A    between atoms: C_10  and  C_13
REMARK                            x       y       z     vdW  Elec       q    Type
REMARK                         _______ _______ _______ _____ _____    ______ ____
ROOT
ATOM      1  N   UNL     1     106.742 120.924 189.892  0.00  0.00    +0.000 N 
ATOM      2  N   UNL     1     107.286 119.971 190.338  0.00  0.00    +0.000 N 
ATOM      3  C   UNL     1     107.083 120.309 189.717  0.00  0.00    +0.000 C 
ATOM      4  C   UNL     1     106.733 120.968 190.600  0.00  0.00    +0.000 C 
ATOM      5  C   UNL     1     107.066 120.385 190.875  0.00  0.00    +0.000 C 
ATOM      6  S   UNL     1     106.708 121.058 191.756  0.00  0.00    +0.000 S 
ATOM      7  C   UNL     1     106.525 121.359 191.152  0.00  0.00    +0.000 C 
ATOM      8  C   UNL     1     107.049 120.443 191.589  0.00  0.00    +0.000 C 
ATOM      9  O   UNL     1     107.193 120.089 189.053  0.00  0.00    +0.000 OA
ATOM     10  C   UNL     1     106.692 121.112 192.458  0.00  0.00    +0.000 C 
ATOM     11  C   UNL     1     107.232 120.138 192.194  0.00  0.00    +0.000 C 
ATOM     12  C   UNL     1     107.025 120.530 192.734  0.00  0.00    +0.000 C 
ENDROOT
BRANCH   1  13
ATOM     13  C   UNL     1     106.417 121.494 189.627  0.00  0.00    +0.000 C 
BRANCH  13  14
ATOM     14  C   UNL     1     106.358 121.581 188.927  0.00  0.00    +0.000 A 
ATOM     15  C   UNL     1     105.794 121.325 188.592  0.00  0.00    +0.000 A 
ATOM     16  C   UNL     1     106.864 121.921 188.574  0.00  0.00    +0.000 A 
ATOM     17  C   UNL     1     105.730 121.408 187.890  0.00  0.00    +0.000 A 
ATOM     18  C   UNL     1     106.805 122.008 187.873  0.00  0.00    +0.000 A 
ATOM     19  C   UNL     1     106.238 121.752 187.528  0.00  0.00    +0.000 A 
ENDBRANCH  13  14
ENDBRANCH   1  13
BRANCH   2  20
ATOM     20  C   UNL     1     107.609 119.405 190.614  0.00  0.00    +0.000 C 
BRANCH  20  21
ATOM     21  C   UNL     1     107.876 118.909 190.184  0.00  0.00    +0.000 A 
ATOM     22  C   UNL     1     107.470 118.372 189.972  0.00  0.00    +0.000 A 
ATOM     23  C   UNL     1     108.551 118.958 189.972  0.00  0.00    +0.000 A 
ATOM     24  C   UNL     1     108.817 118.461 189.542  0.00  0.00    +0.000 A 
ATOM     25  C   UNL     1     107.738 117.878 189.543  0.00  0.00    +0.000 A 
ATOM     26  C   UNL     1     108.410 117.921 189.327  0.00  0.00    +0.000 A 
ENDBRANCH  20  21
ENDBRANCH   2  20
TORSDOF 4
ENDMDL
MODEL 20
REMARK VINA RESULT:      -8.6     42.657     43.525
REMARK  Name = 
REMARK  4 active torsions:
REMARK  status: ('A' for Active; 'I' for Inactive)
REMARK    1  A    between atoms: N_1  and  C_9
REMARK    2  A    between atoms: N_2  and  C_10
REMARK    3  A    between atoms: C_9  and  C_14
REMARK    4  A    between atoms: C_10  and  C_13
REMARK                            x       y       z     vdW  Elec       q    Type
REMARK                         _______ _______ _______ _____ _____    ______ ____
ROOT
ATOM      1  N   UNL     1     106.516 119.486 189.205  0.00  0.00    +0.000 N 
ATOM      2  N   UNL     1     106.844 120.496 188.680  0.00  0.00    +0.000 N 
ATOM      3  C   UNL     1     106.295 120.154 189.030  0.00  0.00    +0.000 C 
ATOM      4  C   UNL     1     107.182 119.415 188.971  0.00  0.00    +0.000 C 
ATOM      5  C   UNL     1     107.385 120.033 188.649  0.00  0.00    +0.000 C 
ATOM      6  S   UNL     1     108.271 119.278 188.597  0.00  0.00    +0.000 S 
ATOM      7  C   UNL     1     107.734 118.975 188.927  0.00  0.00    +0.000 C 
ATOM      8  C   UNL     1     108.058 119.945 188.420  0.00  0.00    +0.000 C 
ATOM      9  O   UNL     1     105.653 120.414 189.180  0.00  0.00    +0.000 OA
ATOM     10  C   UNL     1     108.933 119.196 188.370  0.00  0.00    +0.000 C 
ATOM     11  C   UNL     1     108.596 120.252 188.088  0.00  0.00    +0.000 C 
ATOM     12  C   UNL     1     109.136 119.813 188.048  0.00  0.00    +0.000 C 
ENDROOT
BRANCH   1  13
ATOM     13  C   UNL     1     106.321 118.882 189.518  0.00  0.00    +0.000 C 
BRANCH  13  14
ATOM     14  C   UNL     1     105.672 118.813 189.791  0.00  0.00    +0.000 A 
ATOM     15  C   UNL     1     105.559 118.980 190.466  0.00  0.00    +0.000 A 
ATOM     16  C   UNL     1     105.146 118.577 189.385  0.00  0.00    +0.000 A 
ATOM     17  C   UNL     1     104.910 118.912 190.745  0.00  0.00    +0.000 A 
ATOM     18  C   UNL     1     104.496 118.508 189.658  0.00  0.00    +0.000 A 
ATOM     19  C   UNL     1     104.375 118.675 190.339  0.00  0.00    +0.000 A 
ENDBRANCH  13  14
ENDBRANCH   1  13
BRANCH   2  20
ATOM     20  C   UNL     1     107.050 121.095 188.365  0.00  0.00    +0.000 C 
BRANCH  20  21
ATOM     21  C   UNL     1     106.597 121.639 188.315  0.00  0.00    +0.000 A 
ATOM     22  C   UNL     1     106.181 121.700 187.748  0.00  0.00    +0.000 A 
ATOM     23  C   UNL     1     106.568 122.116 188.838  0.00  0.00    +0.000 A 
ATOM     24  C   UNL     1     106.116 122.660 188.788  0.00  0.00    +0.000 A 
ATOM     25  C   UNL     1     105.731 122.242 187.700  0.00  0.00    +0.000 A 
ATOM     26  C   UNL     1     105.697 122.723 188.219  0.00  0.00    +0.000 A 
ENDBRANCH  20  21
ENDBRANCH   2  20
TORSDOF 4
ENDMDL
