
     RDKit          2D

 50 53  0  0  1  0  0  0  0  0999 V2000
    8.1699   -5.9922    0.0000 C   0  0  0  0  0  0  0  0  0  0  0  0
    7.1470   -5.4017    0.0000 O   0  0  0  0  0  0  0  0  0  0  0  0
    6.1242   -5.9922    0.0000 C   0  0  0  0  0  0  0  0  0  0  0  0
    5.1013   -5.4017    0.0000 C   0  0  0  0  0  0  0  0  0  0  0  0
    4.0784   -5.9922    0.0000 C   0  0  0  0  0  0  0  0  0  0  0  0
    3.0556   -5.4017    0.0000 C   0  0  0  0  0  0  0  0  0  0  0  0
    3.0556   -4.2206    0.0000 O   0  0  0  0  0  0  0  0  0  0  0  0
    2.0327   -5.9922    0.0000 O   0  0  0  0  0  0  0  0  0  0  0  0
    8.1699   -7.1733    0.0000 C   0  0  0  0  0  0  0  0  0  0  0  0
    9.1928   -7.7639    0.0000 N   0  0  0  0  0  0  0  0  0  0  0  0
   10.2156   -7.1733    0.0000 C   0  0  0  0  0  0  0  0  0  0  0  0
   11.2385   -7.7639    0.0000 N   0  0  0  0  0  0  0  0  0  0  0  0
   12.2614   -7.1733    0.0000 C   0  0  0  0  0  0  0  0  0  0  0  0
   12.2614   -5.9922    0.0000 C   0  0  0  0  0  0  0  0  0  0  0  0
   11.2385   -5.4017    0.0000 C   0  0  0  0  0  0  0  0  0  0  0  0
   11.2385   -4.2206    0.0000 C   0  0  0  0  0  0  0  0  0  0  0  0
   10.2156   -3.6300    0.0000 C   0  0  0  0  0  0  0  0  0  0  0  0
    9.1928   -4.2206    0.0000 F   0  0  0  0  0  0  0  0  0  0  0  0
   10.2156   -2.4489    0.0000 F   0  0  0  0  0  0  0  0  0  0  0  0
    9.1928   -3.0395    0.0000 F   0  0  0  0  0  0  0  0  0  0  0  0
   12.2614   -3.6300    0.0000 C   0  0  0  0  0  0  0  0  0  0  0  0
   13.2842   -4.2206    0.0000 C   0  0  0  0  0  0  0  0  0  0  0  0
   14.3071   -3.6300    0.0000 C   0  0  0  0  0  0  0  0  0  0  0  0
   15.3300   -3.0395    0.0000 F   0  0  0  0  0  0  0  0  0  0  0  0
   14.3071   -2.4489    0.0000 F   0  0  0  0  0  0  0  0  0  0  0  0
   15.3300   -4.2206    0.0000 F   0  0  0  0  0  0  0  0  0  0  0  0
   13.2842   -5.4017    0.0000 C   0  0  0  0  0  0  0  0  0  0  0  0
   11.2385   -8.9450    0.0000 C   0  0  0  0  0  0  0  0  0  0  0  0
   12.2614   -9.5355    0.0000 C   0  0  0  0  0  0  0  0  0  0  0  0
   13.2842   -8.9450    0.0000 C   0  0  0  0  0  0  0  0  0  0  0  0
   14.3071   -9.5355    0.0000 C   0  0  0  0  0  0  0  0  0  0  0  0
   15.3300   -8.9450    0.0000 C   0  0  0  0  0  0  0  0  0  0  0  0
   16.3528   -8.3544    0.0000 F   0  0  0  0  0  0  0  0  0  0  0  0
   15.3300   -7.7639    0.0000 F   0  0  0  0  0  0  0  0  0  0  0  0
   16.3528   -9.5355    0.0000 F   0  0  0  0  0  0  0  0  0  0  0  0
   14.3071  -10.7166    0.0000 C   0  0  0  0  0  0  0  0  0  0  0  0
   13.2842  -11.3072    0.0000 C   0  0  0  0  0  0  0  0  0  0  0  0
   12.2614  -10.7166    0.0000 C   0  0  0  0  0  0  0  0  0  0  0  0
   11.2385  -11.3072    0.0000 N   0  0  0  0  0  0  0  0  0  0  0  0
   11.2385  -12.4883    0.0000 C   0  0  0  0  0  0  0  0  0  0  0  0
   12.2614  -13.0788    0.0000 O   0  0  0  0  0  0  0  0  0  0  0  0
   10.2156  -13.0788    0.0000 O   0  0  0  0  0  0  0  0  0  0  0  0
   10.2156  -14.2599    0.0000 C   0  0  0  0  0  0  0  0  0  0  0  0
    9.1928  -14.8505    0.0000 C   0  0  0  0  0  0  0  0  0  0  0  0
   10.2156  -10.7166    0.0000 C   0  0  0  0  0  0  0  0  0  0  0  0
    9.1928  -11.3072    0.0000 C   0  0  0  0  0  0  0  0  0  0  0  0
    9.1928  -12.4883    0.0000 C   0  0  0  0  0  0  0  0  0  0  0  0
   10.2156   -9.5355    0.0000 C   0  0  0  0  0  0  0  0  0  0  0  0
   10.2156   -5.9922    0.0000 N   0  0  0  0  0  0  0  0  0  0  0  0
    9.1928   -5.4017    0.0000 C   0  0  0  0  0  0  0  0  0  0  0  0
  1  2  1  0
  2  3  1  0
  3  4  1  0
  4  5  1  0
  5  6  1  0
  6  7  2  0
  6  8  1  0
  1  9  1  0
  9 10  2  0
 10 11  1  0
 11 12  1  0
 12 13  1  0
 13 14  1  0
 14 15  1  0
 15 16  2  0
 16 17  1  0
 17 18  1  0
 17 19  1  0
 17 20  1  0
 16 21  1  0
 21 22  2  0
 22 23  1  0
 23 24  1  0
 23 25  1  0
 23 26  1  0
 27 14  2  0
 22 27  1  0
 28 12  1  6
 28 29  1  0
 29 30  1  0
 30 31  2  0
 31 32  1  0
 32 33  1  0
 32 34  1  0
 32 35  1  0
 31 36  1  0
 36 37  2  0
 38 37  1  0
 29 38  2  0
 38 39  1  0
 39 40  1  0
 40 41  2  0
 40 42  1  0
 42 43  1  0
 43 44  1  0
 39 45  1  0
 45 46  1  6
 46 47  1  0
 48 28  1  0
 45 48  1  0
 11 49  2  0
 49 50  1  0
 50  1  2  0
M  END


> <chembl_id>
CHEMBL3785197

> <chembl_pref_name>
OBICETRAPIB
